*SPEF "ieee 1481-1999"
*DESIGN "user_proj_example"
*DATE "11:11:11 Fri 11 11, 1111"
*VENDOR "OpenRCX"
*PROGRAM "Parallel Extraction"
*VERSION "1.0"
*DESIGN_FLOW "NAME_SCOPE LOCAL" "PIN_CAP NONE"
*DIVIDER /
*DELIMITER :
*BUS_DELIMITER []
*T_UNIT 1 NS
*C_UNIT 1 PF
*R_UNIT 1 OHM
*L_UNIT 1 HENRY

*NAME_MAP
*1 io_in[0]
*2 io_in[10]
*3 io_in[11]
*4 io_in[12]
*5 io_in[13]
*6 io_in[14]
*7 io_in[15]
*8 io_in[1]
*9 io_in[2]
*10 io_in[3]
*11 io_in[4]
*12 io_in[5]
*13 io_in[6]
*14 io_in[7]
*15 io_in[8]
*16 io_in[9]
*17 net24
*18 net25
*19 net26
*20 net27
*21 net28
*22 net29
*23 io_out[0]
*24 io_out[1]
*25 io_out[2]
*26 io_out[3]
*27 io_out[4]
*28 io_out[5]
*31 wb_clk_i
*32 wb_rst_i
*33 _000_
*34 _001_
*35 _002_
*36 _003_
*37 _004_
*38 _005_
*39 _006_
*40 _007_
*41 _008_
*42 _009_
*43 _010_
*44 _011_
*45 _012_
*46 _013_
*47 _014_
*48 _015_
*49 _016_
*50 _017_
*51 _018_
*52 _019_
*53 _020_
*54 _021_
*55 _022_
*56 _023_
*57 _024_
*58 _025_
*59 _026_
*60 _027_
*61 _028_
*62 _029_
*63 _030_
*64 _031_
*65 _032_
*66 _033_
*67 _034_
*68 _035_
*69 _036_
*70 _037_
*71 _038_
*72 _039_
*73 _040_
*74 _041_
*75 _042_
*76 _043_
*77 _044_
*78 _045_
*79 _046_
*80 _047_
*81 _048_
*82 _049_
*83 _050_
*84 _051_
*85 _052_
*86 _053_
*87 _054_
*88 _055_
*89 _056_
*90 _057_
*91 _058_
*92 _059_
*93 _060_
*94 _061_
*95 _062_
*96 _063_
*97 _064_
*98 _065_
*99 _066_
*100 _067_
*101 _068_
*102 _069_
*103 _070_
*104 _071_
*105 _072_
*106 _073_
*107 _074_
*108 _075_
*109 _076_
*110 _077_
*111 _078_
*112 _079_
*113 _080_
*114 _081_
*115 _082_
*116 _083_
*117 _084_
*118 _085_
*119 _086_
*120 _087_
*121 _088_
*122 _089_
*123 _090_
*124 _091_
*125 _092_
*126 _093_
*127 _094_
*128 _095_
*129 _096_
*130 _097_
*131 _098_
*132 _099_
*133 _100_
*134 _101_
*135 clknet_0_wb_clk_i
*136 clknet_1_0__leaf_wb_clk_i
*137 clknet_1_1__leaf_wb_clk_i
*138 fan_speed_controller0\.fan_speed_controller_controller0\.reset_pulled
*139 net1
*140 net10
*141 net11
*142 net12
*143 net13
*144 net14
*145 net15
*146 net16
*147 net17
*148 net18
*149 net19
*150 net2
*151 net20
*152 net21
*153 net22
*154 net23
*155 net3
*156 net4
*157 net5
*158 net6
*159 net7
*160 net8
*161 net9
*162 ANTENNA_1
*163 ANTENNA_10
*164 ANTENNA_11
*165 ANTENNA_12
*166 ANTENNA_13
*167 ANTENNA_14
*168 ANTENNA_15
*169 ANTENNA_16
*170 ANTENNA_17
*171 ANTENNA_18
*172 ANTENNA_19
*173 ANTENNA_2
*174 ANTENNA_20
*175 ANTENNA_21
*176 ANTENNA_22
*177 ANTENNA_23
*178 ANTENNA_24
*179 ANTENNA_25
*180 ANTENNA_26
*181 ANTENNA_27
*182 ANTENNA_28
*183 ANTENNA_3
*184 ANTENNA_4
*185 ANTENNA_5
*186 ANTENNA_6
*187 ANTENNA_7
*188 ANTENNA_8
*189 ANTENNA_9
*190 ANTENNA__103__I
*191 ANTENNA__105__A1
*192 ANTENNA__106__I
*193 ANTENNA__110__I
*194 ANTENNA__113__A1
*195 ANTENNA__114__I
*196 ANTENNA__116__I
*197 ANTENNA__117__A2
*198 ANTENNA__117__B
*199 ANTENNA__119__A1
*200 ANTENNA__120__I
*201 ANTENNA__124__B2
*202 ANTENNA__126__A1
*203 ANTENNA__127__I
*204 ANTENNA__131__A1
*205 ANTENNA__132__A1
*206 ANTENNA__133__A2
*207 ANTENNA__135__A1
*208 ANTENNA__135__B2
*209 ANTENNA__137__I
*210 ANTENNA__138__A1
*211 ANTENNA__139__I
*212 ANTENNA__140__A1
*213 ANTENNA__140__A2
*214 ANTENNA__141__A2
*215 ANTENNA__147__C2
*216 ANTENNA__150__A1
*217 ANTENNA__151__A2
*218 ANTENNA__152__A1
*219 ANTENNA__156__A1
*220 ANTENNA__159__A2
*221 ANTENNA__160__A2
*222 ANTENNA__162__A1
*223 ANTENNA__164__B
*224 ANTENNA__169__A1
*225 ANTENNA__170__A1
*226 ANTENNA__174__A1
*227 ANTENNA__174__A2
*228 ANTENNA__175__B2
*229 ANTENNA__175__C
*230 ANTENNA__177__I
*231 ANTENNA__178__I
*232 ANTENNA__179__I
*233 ANTENNA__180__A2
*234 ANTENNA__181__I
*235 ANTENNA__182__A1
*236 ANTENNA__190__I
*237 ANTENNA__192__A1
*238 ANTENNA__193__I
*239 ANTENNA__194__A1
*240 ANTENNA__194__A2
*241 ANTENNA__194__B
*242 ANTENNA__197__I
*243 ANTENNA__198__A1
*244 ANTENNA__198__B1
*245 ANTENNA__200__I
*246 ANTENNA__201__A1
*247 ANTENNA__202__I
*248 ANTENNA__204__CLK
*249 ANTENNA__206__CLK
*250 ANTENNA__207__CLK
*251 ANTENNA__208__CLK
*252 ANTENNA_clkbuf_0_wb_clk_i_I
*253 ANTENNA_input10_I
*254 ANTENNA_input11_I
*255 ANTENNA_input12_I
*256 ANTENNA_input13_I
*257 ANTENNA_input14_I
*258 ANTENNA_input15_I
*259 ANTENNA_input16_I
*260 ANTENNA_input17_I
*261 ANTENNA_input1_I
*262 ANTENNA_input2_I
*263 ANTENNA_input3_I
*264 ANTENNA_input4_I
*265 ANTENNA_input5_I
*266 ANTENNA_input6_I
*267 ANTENNA_input7_I
*268 ANTENNA_input8_I
*269 ANTENNA_input9_I
*270 ANTENNA_output18_I
*271 ANTENNA_output19_I
*272 ANTENNA_output20_I
*273 ANTENNA_output21_I
*274 ANTENNA_output22_I
*275 ANTENNA_output23_I
*276 FILLER_0_0_1022
*277 FILLER_0_0_104
*278 FILLER_0_0_1056
*279 FILLER_0_0_1090
*280 FILLER_0_0_1124
*281 FILLER_0_0_1158
*282 FILLER_0_0_1192
*283 FILLER_0_0_1226
*284 FILLER_0_0_1260
*285 FILLER_0_0_1294
*286 FILLER_0_0_1328
*287 FILLER_0_0_1362
*288 FILLER_0_0_138
*289 FILLER_0_0_1396
*290 FILLER_0_0_1430
*291 FILLER_0_0_1464
*292 FILLER_0_0_1498
*293 FILLER_0_0_1532
*294 FILLER_0_0_1566
*295 FILLER_0_0_1600
*296 FILLER_0_0_1634
*297 FILLER_0_0_1668
*298 FILLER_0_0_1702
*299 FILLER_0_0_172
*300 FILLER_0_0_1736
*301 FILLER_0_0_1770
*302 FILLER_0_0_1804
*303 FILLER_0_0_1838
*304 FILLER_0_0_1872
*305 FILLER_0_0_1906
*306 FILLER_0_0_1940
*307 FILLER_0_0_1974
*308 FILLER_0_0_2
*309 FILLER_0_0_2008
*310 FILLER_0_0_2042
*311 FILLER_0_0_206
*312 FILLER_0_0_2076
*313 FILLER_0_0_2110
*314 FILLER_0_0_2144
*315 FILLER_0_0_2178
*316 FILLER_0_0_2212
*317 FILLER_0_0_2246
*318 FILLER_0_0_2280
*319 FILLER_0_0_2314
*320 FILLER_0_0_2348
*321 FILLER_0_0_2382
*322 FILLER_0_0_240
*323 FILLER_0_0_2416
*324 FILLER_0_0_2450
*325 FILLER_0_0_2484
*326 FILLER_0_0_2518
*327 FILLER_0_0_2552
*328 FILLER_0_0_2586
*329 FILLER_0_0_2620
*330 FILLER_0_0_2654
*331 FILLER_0_0_2688
*332 FILLER_0_0_2722
*333 FILLER_0_0_274
*334 FILLER_0_0_2756
*335 FILLER_0_0_2790
*336 FILLER_0_0_2824
*337 FILLER_0_0_2858
*338 FILLER_0_0_2892
*339 FILLER_0_0_2926
*340 FILLER_0_0_2960
*341 FILLER_0_0_2994
*342 FILLER_0_0_3028
*343 FILLER_0_0_3062
*344 FILLER_0_0_308
*345 FILLER_0_0_3096
*346 FILLER_0_0_3130
*347 FILLER_0_0_3164
*348 FILLER_0_0_3198
*349 FILLER_0_0_3232
*350 FILLER_0_0_3266
*351 FILLER_0_0_3300
*352 FILLER_0_0_3334
*353 FILLER_0_0_3368
*354 FILLER_0_0_3402
*355 FILLER_0_0_342
*356 FILLER_0_0_3436
*357 FILLER_0_0_3470
*358 FILLER_0_0_3504
*359 FILLER_0_0_3538
*360 FILLER_0_0_3572
*361 FILLER_0_0_36
*362 FILLER_0_0_3606
*363 FILLER_0_0_3640
*364 FILLER_0_0_3674
*365 FILLER_0_0_3708
*366 FILLER_0_0_3724
*367 FILLER_0_0_3732
*368 FILLER_0_0_3736
*369 FILLER_0_0_3756
*370 FILLER_0_0_376
*371 FILLER_0_0_3772
*372 FILLER_0_0_3776
*373 FILLER_0_0_3810
*374 FILLER_0_0_3844
*375 FILLER_0_0_3878
*376 FILLER_0_0_3912
*377 FILLER_0_0_3946
*378 FILLER_0_0_3980
*379 FILLER_0_0_4014
*380 FILLER_0_0_4048
*381 FILLER_0_0_4082
*382 FILLER_0_0_410
*383 FILLER_0_0_4116
*384 FILLER_0_0_4150
*385 FILLER_0_0_4184
*386 FILLER_0_0_4218
*387 FILLER_0_0_4252
*388 FILLER_0_0_4286
*389 FILLER_0_0_4320
*390 FILLER_0_0_4354
*391 FILLER_0_0_4388
*392 FILLER_0_0_4422
*393 FILLER_0_0_444
*394 FILLER_0_0_4456
*395 FILLER_0_0_4490
*396 FILLER_0_0_4524
*397 FILLER_0_0_4558
*398 FILLER_0_0_4592
*399 FILLER_0_0_4626
*400 FILLER_0_0_4660
*401 FILLER_0_0_4694
*402 FILLER_0_0_4728
*403 FILLER_0_0_4762
*404 FILLER_0_0_478
*405 FILLER_0_0_4796
*406 FILLER_0_0_4830
*407 FILLER_0_0_4864
*408 FILLER_0_0_4898
*409 FILLER_0_0_4932
*410 FILLER_0_0_4966
*411 FILLER_0_0_512
*412 FILLER_0_0_546
*413 FILLER_0_0_580
*414 FILLER_0_0_614
*415 FILLER_0_0_648
*416 FILLER_0_0_682
*417 FILLER_0_0_70
*418 FILLER_0_0_716
*419 FILLER_0_0_750
*420 FILLER_0_0_784
*421 FILLER_0_0_818
*422 FILLER_0_0_852
*423 FILLER_0_0_886
*424 FILLER_0_0_920
*425 FILLER_0_0_954
*426 FILLER_0_0_988
*427 FILLER_0_100_101
*428 FILLER_0_100_1011
*429 FILLER_0_100_1017
*430 FILLER_0_100_107
*431 FILLER_0_100_1081
*432 FILLER_0_100_1087
*433 FILLER_0_100_1151
*434 FILLER_0_100_1157
*435 FILLER_0_100_1221
*436 FILLER_0_100_1227
*437 FILLER_0_100_1291
*438 FILLER_0_100_1297
*439 FILLER_0_100_1361
*440 FILLER_0_100_1367
*441 FILLER_0_100_1431
*442 FILLER_0_100_1437
*443 FILLER_0_100_1501
*444 FILLER_0_100_1507
*445 FILLER_0_100_1571
*446 FILLER_0_100_1577
*447 FILLER_0_100_1641
*448 FILLER_0_100_1647
*449 FILLER_0_100_171
*450 FILLER_0_100_1711
*451 FILLER_0_100_1717
*452 FILLER_0_100_177
*453 FILLER_0_100_1781
*454 FILLER_0_100_1787
*455 FILLER_0_100_1851
*456 FILLER_0_100_1857
*457 FILLER_0_100_1921
*458 FILLER_0_100_1927
*459 FILLER_0_100_1991
*460 FILLER_0_100_1997
*461 FILLER_0_100_2
*462 FILLER_0_100_2061
*463 FILLER_0_100_2067
*464 FILLER_0_100_2131
*465 FILLER_0_100_2137
*466 FILLER_0_100_2201
*467 FILLER_0_100_2207
*468 FILLER_0_100_2271
*469 FILLER_0_100_2277
*470 FILLER_0_100_2341
*471 FILLER_0_100_2347
*472 FILLER_0_100_241
*473 FILLER_0_100_2411
*474 FILLER_0_100_2417
*475 FILLER_0_100_247
*476 FILLER_0_100_2481
*477 FILLER_0_100_2487
*478 FILLER_0_100_2551
*479 FILLER_0_100_2557
*480 FILLER_0_100_2621
*481 FILLER_0_100_2627
*482 FILLER_0_100_2691
*483 FILLER_0_100_2697
*484 FILLER_0_100_2761
*485 FILLER_0_100_2767
*486 FILLER_0_100_2831
*487 FILLER_0_100_2837
*488 FILLER_0_100_2901
*489 FILLER_0_100_2907
*490 FILLER_0_100_2971
*491 FILLER_0_100_2977
*492 FILLER_0_100_3041
*493 FILLER_0_100_3047
*494 FILLER_0_100_311
*495 FILLER_0_100_3111
*496 FILLER_0_100_3117
*497 FILLER_0_100_317
*498 FILLER_0_100_3181
*499 FILLER_0_100_3187
*500 FILLER_0_100_3251
*501 FILLER_0_100_3257
*502 FILLER_0_100_3321
*503 FILLER_0_100_3327
*504 FILLER_0_100_3391
*505 FILLER_0_100_3397
*506 FILLER_0_100_34
*507 FILLER_0_100_3461
*508 FILLER_0_100_3467
*509 FILLER_0_100_3531
*510 FILLER_0_100_3537
*511 FILLER_0_100_3601
*512 FILLER_0_100_3607
*513 FILLER_0_100_3671
*514 FILLER_0_100_3677
*515 FILLER_0_100_37
*516 FILLER_0_100_3741
*517 FILLER_0_100_3747
*518 FILLER_0_100_381
*519 FILLER_0_100_3811
*520 FILLER_0_100_3817
*521 FILLER_0_100_387
*522 FILLER_0_100_3881
*523 FILLER_0_100_3887
*524 FILLER_0_100_3951
*525 FILLER_0_100_3957
*526 FILLER_0_100_4021
*527 FILLER_0_100_4027
*528 FILLER_0_100_4091
*529 FILLER_0_100_4097
*530 FILLER_0_100_4161
*531 FILLER_0_100_4167
*532 FILLER_0_100_4231
*533 FILLER_0_100_4237
*534 FILLER_0_100_4301
*535 FILLER_0_100_4307
*536 FILLER_0_100_4371
*537 FILLER_0_100_4377
*538 FILLER_0_100_4441
*539 FILLER_0_100_4447
*540 FILLER_0_100_451
*541 FILLER_0_100_4511
*542 FILLER_0_100_4517
*543 FILLER_0_100_457
*544 FILLER_0_100_4581
*545 FILLER_0_100_4587
*546 FILLER_0_100_4651
*547 FILLER_0_100_4657
*548 FILLER_0_100_4721
*549 FILLER_0_100_4727
*550 FILLER_0_100_4791
*551 FILLER_0_100_4797
*552 FILLER_0_100_4861
*553 FILLER_0_100_4867
*554 FILLER_0_100_4931
*555 FILLER_0_100_4937
*556 FILLER_0_100_4969
*557 FILLER_0_100_4973
*558 FILLER_0_100_521
*559 FILLER_0_100_527
*560 FILLER_0_100_591
*561 FILLER_0_100_597
*562 FILLER_0_100_661
*563 FILLER_0_100_667
*564 FILLER_0_100_731
*565 FILLER_0_100_737
*566 FILLER_0_100_801
*567 FILLER_0_100_807
*568 FILLER_0_100_871
*569 FILLER_0_100_877
*570 FILLER_0_100_941
*571 FILLER_0_100_947
*572 FILLER_0_101_1046
*573 FILLER_0_101_1052
*574 FILLER_0_101_1116
*575 FILLER_0_101_1122
*576 FILLER_0_101_1186
*577 FILLER_0_101_1192
*578 FILLER_0_101_1256
*579 FILLER_0_101_1262
*580 FILLER_0_101_1326
*581 FILLER_0_101_1332
*582 FILLER_0_101_136
*583 FILLER_0_101_1396
*584 FILLER_0_101_1402
*585 FILLER_0_101_142
*586 FILLER_0_101_1466
*587 FILLER_0_101_1472
*588 FILLER_0_101_1536
*589 FILLER_0_101_1542
*590 FILLER_0_101_1606
*591 FILLER_0_101_1612
*592 FILLER_0_101_1676
*593 FILLER_0_101_1682
*594 FILLER_0_101_1746
*595 FILLER_0_101_1752
*596 FILLER_0_101_1816
*597 FILLER_0_101_1822
*598 FILLER_0_101_1886
*599 FILLER_0_101_1892
*600 FILLER_0_101_1956
*601 FILLER_0_101_1962
*602 FILLER_0_101_2
*603 FILLER_0_101_2026
*604 FILLER_0_101_2032
*605 FILLER_0_101_206
*606 FILLER_0_101_2096
*607 FILLER_0_101_2102
*608 FILLER_0_101_212
*609 FILLER_0_101_2166
*610 FILLER_0_101_2172
*611 FILLER_0_101_2236
*612 FILLER_0_101_2242
*613 FILLER_0_101_2306
*614 FILLER_0_101_2312
*615 FILLER_0_101_2376
*616 FILLER_0_101_2382
*617 FILLER_0_101_2446
*618 FILLER_0_101_2452
*619 FILLER_0_101_2516
*620 FILLER_0_101_2522
*621 FILLER_0_101_2586
*622 FILLER_0_101_2592
*623 FILLER_0_101_2656
*624 FILLER_0_101_2662
*625 FILLER_0_101_2726
*626 FILLER_0_101_2732
*627 FILLER_0_101_276
*628 FILLER_0_101_2796
*629 FILLER_0_101_2802
*630 FILLER_0_101_282
*631 FILLER_0_101_2866
*632 FILLER_0_101_2872
*633 FILLER_0_101_2936
*634 FILLER_0_101_2942
*635 FILLER_0_101_3006
*636 FILLER_0_101_3012
*637 FILLER_0_101_3076
*638 FILLER_0_101_3082
*639 FILLER_0_101_3146
*640 FILLER_0_101_3152
*641 FILLER_0_101_3216
*642 FILLER_0_101_3222
*643 FILLER_0_101_3286
*644 FILLER_0_101_3292
*645 FILLER_0_101_3356
*646 FILLER_0_101_3362
*647 FILLER_0_101_3426
*648 FILLER_0_101_3432
*649 FILLER_0_101_346
*650 FILLER_0_101_3496
*651 FILLER_0_101_3502
*652 FILLER_0_101_352
*653 FILLER_0_101_3566
*654 FILLER_0_101_3572
*655 FILLER_0_101_3636
*656 FILLER_0_101_3642
*657 FILLER_0_101_3706
*658 FILLER_0_101_3712
*659 FILLER_0_101_3776
*660 FILLER_0_101_3782
*661 FILLER_0_101_3846
*662 FILLER_0_101_3852
*663 FILLER_0_101_3916
*664 FILLER_0_101_3922
*665 FILLER_0_101_3986
*666 FILLER_0_101_3992
*667 FILLER_0_101_4056
*668 FILLER_0_101_4062
*669 FILLER_0_101_4126
*670 FILLER_0_101_4132
*671 FILLER_0_101_416
*672 FILLER_0_101_4196
*673 FILLER_0_101_4202
*674 FILLER_0_101_422
*675 FILLER_0_101_4266
*676 FILLER_0_101_4272
*677 FILLER_0_101_4336
*678 FILLER_0_101_4342
*679 FILLER_0_101_4406
*680 FILLER_0_101_4412
*681 FILLER_0_101_4476
*682 FILLER_0_101_4482
*683 FILLER_0_101_4546
*684 FILLER_0_101_4552
*685 FILLER_0_101_4616
*686 FILLER_0_101_4622
*687 FILLER_0_101_4686
*688 FILLER_0_101_4692
*689 FILLER_0_101_4756
*690 FILLER_0_101_4762
*691 FILLER_0_101_4826
*692 FILLER_0_101_4832
*693 FILLER_0_101_486
*694 FILLER_0_101_4896
*695 FILLER_0_101_4902
*696 FILLER_0_101_492
*697 FILLER_0_101_4966
*698 FILLER_0_101_4972
*699 FILLER_0_101_556
*700 FILLER_0_101_562
*701 FILLER_0_101_626
*702 FILLER_0_101_632
*703 FILLER_0_101_66
*704 FILLER_0_101_696
*705 FILLER_0_101_702
*706 FILLER_0_101_72
*707 FILLER_0_101_766
*708 FILLER_0_101_772
*709 FILLER_0_101_836
*710 FILLER_0_101_842
*711 FILLER_0_101_906
*712 FILLER_0_101_912
*713 FILLER_0_101_976
*714 FILLER_0_101_982
*715 FILLER_0_102_101
*716 FILLER_0_102_1011
*717 FILLER_0_102_1017
*718 FILLER_0_102_107
*719 FILLER_0_102_1081
*720 FILLER_0_102_1087
*721 FILLER_0_102_1151
*722 FILLER_0_102_1157
*723 FILLER_0_102_1221
*724 FILLER_0_102_1227
*725 FILLER_0_102_1291
*726 FILLER_0_102_1297
*727 FILLER_0_102_1361
*728 FILLER_0_102_1367
*729 FILLER_0_102_1431
*730 FILLER_0_102_1437
*731 FILLER_0_102_1501
*732 FILLER_0_102_1507
*733 FILLER_0_102_1571
*734 FILLER_0_102_1577
*735 FILLER_0_102_1641
*736 FILLER_0_102_1647
*737 FILLER_0_102_171
*738 FILLER_0_102_1711
*739 FILLER_0_102_1717
*740 FILLER_0_102_177
*741 FILLER_0_102_1781
*742 FILLER_0_102_1787
*743 FILLER_0_102_1851
*744 FILLER_0_102_1857
*745 FILLER_0_102_1921
*746 FILLER_0_102_1927
*747 FILLER_0_102_1991
*748 FILLER_0_102_1997
*749 FILLER_0_102_2
*750 FILLER_0_102_2061
*751 FILLER_0_102_2067
*752 FILLER_0_102_2131
*753 FILLER_0_102_2137
*754 FILLER_0_102_2201
*755 FILLER_0_102_2207
*756 FILLER_0_102_2271
*757 FILLER_0_102_2277
*758 FILLER_0_102_2341
*759 FILLER_0_102_2347
*760 FILLER_0_102_241
*761 FILLER_0_102_2411
*762 FILLER_0_102_2417
*763 FILLER_0_102_247
*764 FILLER_0_102_2481
*765 FILLER_0_102_2487
*766 FILLER_0_102_2551
*767 FILLER_0_102_2557
*768 FILLER_0_102_2621
*769 FILLER_0_102_2627
*770 FILLER_0_102_2691
*771 FILLER_0_102_2697
*772 FILLER_0_102_2761
*773 FILLER_0_102_2767
*774 FILLER_0_102_2831
*775 FILLER_0_102_2837
*776 FILLER_0_102_2901
*777 FILLER_0_102_2907
*778 FILLER_0_102_2971
*779 FILLER_0_102_2977
*780 FILLER_0_102_3041
*781 FILLER_0_102_3047
*782 FILLER_0_102_311
*783 FILLER_0_102_3111
*784 FILLER_0_102_3117
*785 FILLER_0_102_317
*786 FILLER_0_102_3181
*787 FILLER_0_102_3187
*788 FILLER_0_102_3251
*789 FILLER_0_102_3257
*790 FILLER_0_102_3321
*791 FILLER_0_102_3327
*792 FILLER_0_102_3391
*793 FILLER_0_102_3397
*794 FILLER_0_102_34
*795 FILLER_0_102_3461
*796 FILLER_0_102_3467
*797 FILLER_0_102_3531
*798 FILLER_0_102_3537
*799 FILLER_0_102_3601
*800 FILLER_0_102_3607
*801 FILLER_0_102_3671
*802 FILLER_0_102_3677
*803 FILLER_0_102_37
*804 FILLER_0_102_3741
*805 FILLER_0_102_3747
*806 FILLER_0_102_381
*807 FILLER_0_102_3811
*808 FILLER_0_102_3817
*809 FILLER_0_102_387
*810 FILLER_0_102_3881
*811 FILLER_0_102_3887
*812 FILLER_0_102_3951
*813 FILLER_0_102_3957
*814 FILLER_0_102_4021
*815 FILLER_0_102_4027
*816 FILLER_0_102_4091
*817 FILLER_0_102_4097
*818 FILLER_0_102_4161
*819 FILLER_0_102_4167
*820 FILLER_0_102_4231
*821 FILLER_0_102_4237
*822 FILLER_0_102_4301
*823 FILLER_0_102_4307
*824 FILLER_0_102_4371
*825 FILLER_0_102_4377
*826 FILLER_0_102_4441
*827 FILLER_0_102_4447
*828 FILLER_0_102_451
*829 FILLER_0_102_4511
*830 FILLER_0_102_4517
*831 FILLER_0_102_457
*832 FILLER_0_102_4581
*833 FILLER_0_102_4587
*834 FILLER_0_102_4651
*835 FILLER_0_102_4657
*836 FILLER_0_102_4721
*837 FILLER_0_102_4727
*838 FILLER_0_102_4791
*839 FILLER_0_102_4797
*840 FILLER_0_102_4861
*841 FILLER_0_102_4867
*842 FILLER_0_102_4931
*843 FILLER_0_102_4937
*844 FILLER_0_102_4969
*845 FILLER_0_102_4973
*846 FILLER_0_102_521
*847 FILLER_0_102_527
*848 FILLER_0_102_591
*849 FILLER_0_102_597
*850 FILLER_0_102_661
*851 FILLER_0_102_667
*852 FILLER_0_102_731
*853 FILLER_0_102_737
*854 FILLER_0_102_801
*855 FILLER_0_102_807
*856 FILLER_0_102_871
*857 FILLER_0_102_877
*858 FILLER_0_102_941
*859 FILLER_0_102_947
*860 FILLER_0_103_1046
*861 FILLER_0_103_1052
*862 FILLER_0_103_1116
*863 FILLER_0_103_1122
*864 FILLER_0_103_1186
*865 FILLER_0_103_1192
*866 FILLER_0_103_1256
*867 FILLER_0_103_1262
*868 FILLER_0_103_1326
*869 FILLER_0_103_1332
*870 FILLER_0_103_136
*871 FILLER_0_103_1396
*872 FILLER_0_103_1402
*873 FILLER_0_103_142
*874 FILLER_0_103_1466
*875 FILLER_0_103_1472
*876 FILLER_0_103_1536
*877 FILLER_0_103_1542
*878 FILLER_0_103_1606
*879 FILLER_0_103_1612
*880 FILLER_0_103_1676
*881 FILLER_0_103_1682
*882 FILLER_0_103_1746
*883 FILLER_0_103_1752
*884 FILLER_0_103_1816
*885 FILLER_0_103_1822
*886 FILLER_0_103_1886
*887 FILLER_0_103_1892
*888 FILLER_0_103_1956
*889 FILLER_0_103_1962
*890 FILLER_0_103_2
*891 FILLER_0_103_2026
*892 FILLER_0_103_2032
*893 FILLER_0_103_206
*894 FILLER_0_103_2096
*895 FILLER_0_103_2102
*896 FILLER_0_103_212
*897 FILLER_0_103_2166
*898 FILLER_0_103_2172
*899 FILLER_0_103_2236
*900 FILLER_0_103_2242
*901 FILLER_0_103_2306
*902 FILLER_0_103_2312
*903 FILLER_0_103_2376
*904 FILLER_0_103_2382
*905 FILLER_0_103_2446
*906 FILLER_0_103_2452
*907 FILLER_0_103_2516
*908 FILLER_0_103_2522
*909 FILLER_0_103_2586
*910 FILLER_0_103_2592
*911 FILLER_0_103_2656
*912 FILLER_0_103_2662
*913 FILLER_0_103_2726
*914 FILLER_0_103_2732
*915 FILLER_0_103_276
*916 FILLER_0_103_2796
*917 FILLER_0_103_2802
*918 FILLER_0_103_282
*919 FILLER_0_103_2866
*920 FILLER_0_103_2872
*921 FILLER_0_103_2936
*922 FILLER_0_103_2942
*923 FILLER_0_103_3006
*924 FILLER_0_103_3012
*925 FILLER_0_103_3076
*926 FILLER_0_103_3082
*927 FILLER_0_103_3146
*928 FILLER_0_103_3152
*929 FILLER_0_103_3216
*930 FILLER_0_103_3222
*931 FILLER_0_103_3286
*932 FILLER_0_103_3292
*933 FILLER_0_103_3356
*934 FILLER_0_103_3362
*935 FILLER_0_103_3426
*936 FILLER_0_103_3432
*937 FILLER_0_103_346
*938 FILLER_0_103_3496
*939 FILLER_0_103_3502
*940 FILLER_0_103_352
*941 FILLER_0_103_3566
*942 FILLER_0_103_3572
*943 FILLER_0_103_3636
*944 FILLER_0_103_3642
*945 FILLER_0_103_3706
*946 FILLER_0_103_3712
*947 FILLER_0_103_3776
*948 FILLER_0_103_3782
*949 FILLER_0_103_3846
*950 FILLER_0_103_3852
*951 FILLER_0_103_3916
*952 FILLER_0_103_3922
*953 FILLER_0_103_3986
*954 FILLER_0_103_3992
*955 FILLER_0_103_4056
*956 FILLER_0_103_4062
*957 FILLER_0_103_4126
*958 FILLER_0_103_4132
*959 FILLER_0_103_416
*960 FILLER_0_103_4196
*961 FILLER_0_103_4202
*962 FILLER_0_103_422
*963 FILLER_0_103_4266
*964 FILLER_0_103_4272
*965 FILLER_0_103_4336
*966 FILLER_0_103_4342
*967 FILLER_0_103_4406
*968 FILLER_0_103_4412
*969 FILLER_0_103_4476
*970 FILLER_0_103_4482
*971 FILLER_0_103_4546
*972 FILLER_0_103_4552
*973 FILLER_0_103_4616
*974 FILLER_0_103_4622
*975 FILLER_0_103_4686
*976 FILLER_0_103_4692
*977 FILLER_0_103_4756
*978 FILLER_0_103_4762
*979 FILLER_0_103_4826
*980 FILLER_0_103_4832
*981 FILLER_0_103_486
*982 FILLER_0_103_4896
*983 FILLER_0_103_4902
*984 FILLER_0_103_492
*985 FILLER_0_103_4966
*986 FILLER_0_103_4972
*987 FILLER_0_103_556
*988 FILLER_0_103_562
*989 FILLER_0_103_626
*990 FILLER_0_103_632
*991 FILLER_0_103_66
*992 FILLER_0_103_696
*993 FILLER_0_103_702
*994 FILLER_0_103_72
*995 FILLER_0_103_766
*996 FILLER_0_103_772
*997 FILLER_0_103_836
*998 FILLER_0_103_842
*999 FILLER_0_103_906
*1000 FILLER_0_103_912
*1001 FILLER_0_103_976
*1002 FILLER_0_103_982
*1003 FILLER_0_104_101
*1004 FILLER_0_104_1011
*1005 FILLER_0_104_1017
*1006 FILLER_0_104_107
*1007 FILLER_0_104_1081
*1008 FILLER_0_104_1087
*1009 FILLER_0_104_1151
*1010 FILLER_0_104_1157
*1011 FILLER_0_104_1221
*1012 FILLER_0_104_1227
*1013 FILLER_0_104_1291
*1014 FILLER_0_104_1297
*1015 FILLER_0_104_1361
*1016 FILLER_0_104_1367
*1017 FILLER_0_104_1431
*1018 FILLER_0_104_1437
*1019 FILLER_0_104_1501
*1020 FILLER_0_104_1507
*1021 FILLER_0_104_1571
*1022 FILLER_0_104_1577
*1023 FILLER_0_104_1641
*1024 FILLER_0_104_1647
*1025 FILLER_0_104_171
*1026 FILLER_0_104_1711
*1027 FILLER_0_104_1717
*1028 FILLER_0_104_177
*1029 FILLER_0_104_1781
*1030 FILLER_0_104_1787
*1031 FILLER_0_104_1851
*1032 FILLER_0_104_1857
*1033 FILLER_0_104_1921
*1034 FILLER_0_104_1927
*1035 FILLER_0_104_1991
*1036 FILLER_0_104_1997
*1037 FILLER_0_104_2
*1038 FILLER_0_104_2061
*1039 FILLER_0_104_2067
*1040 FILLER_0_104_2131
*1041 FILLER_0_104_2137
*1042 FILLER_0_104_2201
*1043 FILLER_0_104_2207
*1044 FILLER_0_104_2271
*1045 FILLER_0_104_2277
*1046 FILLER_0_104_2341
*1047 FILLER_0_104_2347
*1048 FILLER_0_104_241
*1049 FILLER_0_104_2411
*1050 FILLER_0_104_2417
*1051 FILLER_0_104_247
*1052 FILLER_0_104_2481
*1053 FILLER_0_104_2487
*1054 FILLER_0_104_2551
*1055 FILLER_0_104_2557
*1056 FILLER_0_104_2621
*1057 FILLER_0_104_2627
*1058 FILLER_0_104_2691
*1059 FILLER_0_104_2697
*1060 FILLER_0_104_2761
*1061 FILLER_0_104_2767
*1062 FILLER_0_104_2831
*1063 FILLER_0_104_2837
*1064 FILLER_0_104_2901
*1065 FILLER_0_104_2907
*1066 FILLER_0_104_2971
*1067 FILLER_0_104_2977
*1068 FILLER_0_104_3041
*1069 FILLER_0_104_3047
*1070 FILLER_0_104_311
*1071 FILLER_0_104_3111
*1072 FILLER_0_104_3117
*1073 FILLER_0_104_317
*1074 FILLER_0_104_3181
*1075 FILLER_0_104_3187
*1076 FILLER_0_104_3251
*1077 FILLER_0_104_3257
*1078 FILLER_0_104_3321
*1079 FILLER_0_104_3327
*1080 FILLER_0_104_3391
*1081 FILLER_0_104_3397
*1082 FILLER_0_104_34
*1083 FILLER_0_104_3461
*1084 FILLER_0_104_3467
*1085 FILLER_0_104_3531
*1086 FILLER_0_104_3537
*1087 FILLER_0_104_3601
*1088 FILLER_0_104_3607
*1089 FILLER_0_104_3671
*1090 FILLER_0_104_3677
*1091 FILLER_0_104_37
*1092 FILLER_0_104_3741
*1093 FILLER_0_104_3747
*1094 FILLER_0_104_381
*1095 FILLER_0_104_3811
*1096 FILLER_0_104_3817
*1097 FILLER_0_104_387
*1098 FILLER_0_104_3881
*1099 FILLER_0_104_3887
*1100 FILLER_0_104_3951
*1101 FILLER_0_104_3957
*1102 FILLER_0_104_4021
*1103 FILLER_0_104_4027
*1104 FILLER_0_104_4091
*1105 FILLER_0_104_4097
*1106 FILLER_0_104_4161
*1107 FILLER_0_104_4167
*1108 FILLER_0_104_4231
*1109 FILLER_0_104_4237
*1110 FILLER_0_104_4301
*1111 FILLER_0_104_4307
*1112 FILLER_0_104_4371
*1113 FILLER_0_104_4377
*1114 FILLER_0_104_4441
*1115 FILLER_0_104_4447
*1116 FILLER_0_104_451
*1117 FILLER_0_104_4511
*1118 FILLER_0_104_4517
*1119 FILLER_0_104_457
*1120 FILLER_0_104_4581
*1121 FILLER_0_104_4587
*1122 FILLER_0_104_4651
*1123 FILLER_0_104_4657
*1124 FILLER_0_104_4721
*1125 FILLER_0_104_4727
*1126 FILLER_0_104_4791
*1127 FILLER_0_104_4797
*1128 FILLER_0_104_4861
*1129 FILLER_0_104_4867
*1130 FILLER_0_104_4931
*1131 FILLER_0_104_4937
*1132 FILLER_0_104_4969
*1133 FILLER_0_104_4973
*1134 FILLER_0_104_521
*1135 FILLER_0_104_527
*1136 FILLER_0_104_591
*1137 FILLER_0_104_597
*1138 FILLER_0_104_661
*1139 FILLER_0_104_667
*1140 FILLER_0_104_731
*1141 FILLER_0_104_737
*1142 FILLER_0_104_801
*1143 FILLER_0_104_807
*1144 FILLER_0_104_871
*1145 FILLER_0_104_877
*1146 FILLER_0_104_941
*1147 FILLER_0_104_947
*1148 FILLER_0_105_1046
*1149 FILLER_0_105_1052
*1150 FILLER_0_105_1116
*1151 FILLER_0_105_1122
*1152 FILLER_0_105_1186
*1153 FILLER_0_105_1192
*1154 FILLER_0_105_1256
*1155 FILLER_0_105_1262
*1156 FILLER_0_105_1326
*1157 FILLER_0_105_1332
*1158 FILLER_0_105_136
*1159 FILLER_0_105_1396
*1160 FILLER_0_105_1402
*1161 FILLER_0_105_142
*1162 FILLER_0_105_1466
*1163 FILLER_0_105_1472
*1164 FILLER_0_105_1536
*1165 FILLER_0_105_1542
*1166 FILLER_0_105_1606
*1167 FILLER_0_105_1612
*1168 FILLER_0_105_1676
*1169 FILLER_0_105_1682
*1170 FILLER_0_105_1746
*1171 FILLER_0_105_1752
*1172 FILLER_0_105_1816
*1173 FILLER_0_105_1822
*1174 FILLER_0_105_1886
*1175 FILLER_0_105_1892
*1176 FILLER_0_105_1956
*1177 FILLER_0_105_1962
*1178 FILLER_0_105_2
*1179 FILLER_0_105_2026
*1180 FILLER_0_105_2032
*1181 FILLER_0_105_206
*1182 FILLER_0_105_2096
*1183 FILLER_0_105_2102
*1184 FILLER_0_105_212
*1185 FILLER_0_105_2166
*1186 FILLER_0_105_2172
*1187 FILLER_0_105_2236
*1188 FILLER_0_105_2242
*1189 FILLER_0_105_2306
*1190 FILLER_0_105_2312
*1191 FILLER_0_105_2376
*1192 FILLER_0_105_2382
*1193 FILLER_0_105_2446
*1194 FILLER_0_105_2452
*1195 FILLER_0_105_2516
*1196 FILLER_0_105_2522
*1197 FILLER_0_105_2586
*1198 FILLER_0_105_2592
*1199 FILLER_0_105_2656
*1200 FILLER_0_105_2662
*1201 FILLER_0_105_2726
*1202 FILLER_0_105_2732
*1203 FILLER_0_105_276
*1204 FILLER_0_105_2796
*1205 FILLER_0_105_2802
*1206 FILLER_0_105_282
*1207 FILLER_0_105_2866
*1208 FILLER_0_105_2872
*1209 FILLER_0_105_2936
*1210 FILLER_0_105_2942
*1211 FILLER_0_105_3006
*1212 FILLER_0_105_3012
*1213 FILLER_0_105_3076
*1214 FILLER_0_105_3082
*1215 FILLER_0_105_3146
*1216 FILLER_0_105_3152
*1217 FILLER_0_105_3216
*1218 FILLER_0_105_3222
*1219 FILLER_0_105_3286
*1220 FILLER_0_105_3292
*1221 FILLER_0_105_3356
*1222 FILLER_0_105_3362
*1223 FILLER_0_105_3426
*1224 FILLER_0_105_3432
*1225 FILLER_0_105_346
*1226 FILLER_0_105_3496
*1227 FILLER_0_105_3502
*1228 FILLER_0_105_352
*1229 FILLER_0_105_3566
*1230 FILLER_0_105_3572
*1231 FILLER_0_105_3636
*1232 FILLER_0_105_3642
*1233 FILLER_0_105_3706
*1234 FILLER_0_105_3712
*1235 FILLER_0_105_3776
*1236 FILLER_0_105_3782
*1237 FILLER_0_105_3846
*1238 FILLER_0_105_3852
*1239 FILLER_0_105_3916
*1240 FILLER_0_105_3922
*1241 FILLER_0_105_3986
*1242 FILLER_0_105_3992
*1243 FILLER_0_105_4056
*1244 FILLER_0_105_4062
*1245 FILLER_0_105_4126
*1246 FILLER_0_105_4132
*1247 FILLER_0_105_416
*1248 FILLER_0_105_4196
*1249 FILLER_0_105_4202
*1250 FILLER_0_105_422
*1251 FILLER_0_105_4266
*1252 FILLER_0_105_4272
*1253 FILLER_0_105_4336
*1254 FILLER_0_105_4342
*1255 FILLER_0_105_4406
*1256 FILLER_0_105_4412
*1257 FILLER_0_105_4476
*1258 FILLER_0_105_4482
*1259 FILLER_0_105_4546
*1260 FILLER_0_105_4552
*1261 FILLER_0_105_4616
*1262 FILLER_0_105_4622
*1263 FILLER_0_105_4686
*1264 FILLER_0_105_4692
*1265 FILLER_0_105_4756
*1266 FILLER_0_105_4762
*1267 FILLER_0_105_4826
*1268 FILLER_0_105_4832
*1269 FILLER_0_105_486
*1270 FILLER_0_105_4896
*1271 FILLER_0_105_4902
*1272 FILLER_0_105_492
*1273 FILLER_0_105_4966
*1274 FILLER_0_105_4972
*1275 FILLER_0_105_556
*1276 FILLER_0_105_562
*1277 FILLER_0_105_626
*1278 FILLER_0_105_632
*1279 FILLER_0_105_66
*1280 FILLER_0_105_696
*1281 FILLER_0_105_702
*1282 FILLER_0_105_72
*1283 FILLER_0_105_766
*1284 FILLER_0_105_772
*1285 FILLER_0_105_836
*1286 FILLER_0_105_842
*1287 FILLER_0_105_906
*1288 FILLER_0_105_912
*1289 FILLER_0_105_976
*1290 FILLER_0_105_982
*1291 FILLER_0_106_101
*1292 FILLER_0_106_1011
*1293 FILLER_0_106_1017
*1294 FILLER_0_106_107
*1295 FILLER_0_106_1081
*1296 FILLER_0_106_1087
*1297 FILLER_0_106_1151
*1298 FILLER_0_106_1157
*1299 FILLER_0_106_1221
*1300 FILLER_0_106_1227
*1301 FILLER_0_106_1291
*1302 FILLER_0_106_1297
*1303 FILLER_0_106_1361
*1304 FILLER_0_106_1367
*1305 FILLER_0_106_1431
*1306 FILLER_0_106_1437
*1307 FILLER_0_106_1501
*1308 FILLER_0_106_1507
*1309 FILLER_0_106_1571
*1310 FILLER_0_106_1577
*1311 FILLER_0_106_1641
*1312 FILLER_0_106_1647
*1313 FILLER_0_106_171
*1314 FILLER_0_106_1711
*1315 FILLER_0_106_1717
*1316 FILLER_0_106_177
*1317 FILLER_0_106_1781
*1318 FILLER_0_106_1787
*1319 FILLER_0_106_1851
*1320 FILLER_0_106_1857
*1321 FILLER_0_106_1921
*1322 FILLER_0_106_1927
*1323 FILLER_0_106_1991
*1324 FILLER_0_106_1997
*1325 FILLER_0_106_2
*1326 FILLER_0_106_2061
*1327 FILLER_0_106_2067
*1328 FILLER_0_106_2131
*1329 FILLER_0_106_2137
*1330 FILLER_0_106_2201
*1331 FILLER_0_106_2207
*1332 FILLER_0_106_2271
*1333 FILLER_0_106_2277
*1334 FILLER_0_106_2341
*1335 FILLER_0_106_2347
*1336 FILLER_0_106_241
*1337 FILLER_0_106_2411
*1338 FILLER_0_106_2417
*1339 FILLER_0_106_247
*1340 FILLER_0_106_2481
*1341 FILLER_0_106_2487
*1342 FILLER_0_106_2551
*1343 FILLER_0_106_2557
*1344 FILLER_0_106_2621
*1345 FILLER_0_106_2627
*1346 FILLER_0_106_2691
*1347 FILLER_0_106_2697
*1348 FILLER_0_106_2761
*1349 FILLER_0_106_2767
*1350 FILLER_0_106_2831
*1351 FILLER_0_106_2837
*1352 FILLER_0_106_2901
*1353 FILLER_0_106_2907
*1354 FILLER_0_106_2971
*1355 FILLER_0_106_2977
*1356 FILLER_0_106_3041
*1357 FILLER_0_106_3047
*1358 FILLER_0_106_311
*1359 FILLER_0_106_3111
*1360 FILLER_0_106_3117
*1361 FILLER_0_106_317
*1362 FILLER_0_106_3181
*1363 FILLER_0_106_3187
*1364 FILLER_0_106_3251
*1365 FILLER_0_106_3257
*1366 FILLER_0_106_3321
*1367 FILLER_0_106_3327
*1368 FILLER_0_106_3391
*1369 FILLER_0_106_3397
*1370 FILLER_0_106_34
*1371 FILLER_0_106_3461
*1372 FILLER_0_106_3467
*1373 FILLER_0_106_3531
*1374 FILLER_0_106_3537
*1375 FILLER_0_106_3601
*1376 FILLER_0_106_3607
*1377 FILLER_0_106_3671
*1378 FILLER_0_106_3677
*1379 FILLER_0_106_37
*1380 FILLER_0_106_3741
*1381 FILLER_0_106_3747
*1382 FILLER_0_106_381
*1383 FILLER_0_106_3811
*1384 FILLER_0_106_3817
*1385 FILLER_0_106_387
*1386 FILLER_0_106_3881
*1387 FILLER_0_106_3887
*1388 FILLER_0_106_3951
*1389 FILLER_0_106_3957
*1390 FILLER_0_106_4021
*1391 FILLER_0_106_4027