*SPEF "ieee 1481-1999"
*DESIGN "user_project_wrapper"
*DATE "11:11:11 Fri 11 11, 1111"
*VENDOR "OpenRCX"
*PROGRAM "Parallel Extraction"
*VERSION "1.0"
*DESIGN_FLOW "NAME_SCOPE LOCAL" "PIN_CAP NONE"
*DIVIDER /
*DELIMITER :
*BUS_DELIMITER []
*T_UNIT 1 NS
*C_UNIT 1 PF
*R_UNIT 1 OHM
*L_UNIT 1 HENRY

*NAME_MAP
*1 io_in[0]
*2 io_in[10]
*3 io_in[11]
*4 io_in[12]
*5 io_in[13]
*6 io_in[14]
*7 io_in[15]
*8 io_in[16]
*9 io_in[17]
*10 io_in[18]
*11 io_in[19]
*12 io_in[1]
*13 io_in[20]
*14 io_in[21]
*15 io_in[22]
*16 io_in[23]
*17 io_in[24]
*18 io_in[25]
*19 io_in[26]
*20 io_in[27]
*21 io_in[28]
*22 io_in[29]
*23 io_in[2]
*24 io_in[30]
*25 io_in[31]
*26 io_in[32]
*27 io_in[33]
*28 io_in[34]
*29 io_in[35]
*30 io_in[36]
*31 io_in[37]
*32 io_in[3]
*33 io_in[4]
*34 io_in[5]
*35 io_in[6]
*36 io_in[7]
*37 io_in[8]
*38 io_in[9]
*39 io_oeb[0]
*40 io_oeb[10]
*41 io_oeb[11]
*42 io_oeb[12]
*43 io_oeb[13]
*44 io_oeb[14]
*45 io_oeb[15]
*46 io_oeb[16]
*47 io_oeb[17]
*48 io_oeb[18]
*49 io_oeb[19]
*50 io_oeb[1]
*51 io_oeb[20]
*52 io_oeb[21]
*53 io_oeb[22]
*54 io_oeb[23]
*55 io_oeb[24]
*56 io_oeb[25]
*57 io_oeb[26]
*58 io_oeb[27]
*59 io_oeb[28]
*60 io_oeb[29]
*61 io_oeb[2]
*62 io_oeb[30]
*63 io_oeb[31]
*64 io_oeb[32]
*65 io_oeb[33]
*66 io_oeb[34]
*67 io_oeb[35]
*68 io_oeb[36]
*69 io_oeb[37]
*70 io_oeb[3]
*71 io_oeb[4]
*72 io_oeb[5]
*73 io_oeb[6]
*74 io_oeb[7]
*75 io_oeb[8]
*76 io_oeb[9]
*77 io_out[0]
*78 io_out[10]
*79 io_out[11]
*80 io_out[12]
*81 io_out[13]
*82 io_out[14]
*83 io_out[15]
*84 io_out[16]
*85 io_out[17]
*86 io_out[18]
*87 io_out[19]
*88 io_out[1]
*89 io_out[20]
*90 io_out[21]
*91 io_out[22]
*92 io_out[23]
*93 io_out[24]
*94 io_out[25]
*95 io_out[26]
*96 io_out[27]
*97 io_out[28]
*98 io_out[29]
*99 io_out[2]
*100 io_out[30]
*101 io_out[31]
*102 io_out[32]
*103 io_out[33]
*104 io_out[34]
*105 io_out[35]
*106 io_out[36]
*107 io_out[37]
*108 io_out[3]
*109 io_out[4]
*110 io_out[5]
*111 io_out[6]
*112 io_out[7]
*113 io_out[8]
*114 io_out[9]
*115 la_data_in[0]
*116 la_data_in[10]
*117 la_data_in[11]
*118 la_data_in[12]
*119 la_data_in[13]
*120 la_data_in[14]
*121 la_data_in[15]
*122 la_data_in[16]
*123 la_data_in[17]
*124 la_data_in[18]
*125 la_data_in[19]
*126 la_data_in[1]
*127 la_data_in[20]
*128 la_data_in[21]
*129 la_data_in[22]
*130 la_data_in[23]
*131 la_data_in[24]
*132 la_data_in[25]
*133 la_data_in[26]
*134 la_data_in[27]
*135 la_data_in[28]
*136 la_data_in[29]
*137 la_data_in[2]
*138 la_data_in[30]
*139 la_data_in[31]
*140 la_data_in[32]
*141 la_data_in[33]
*142 la_data_in[34]
*143 la_data_in[35]
*144 la_data_in[36]
*145 la_data_in[37]
*146 la_data_in[38]
*147 la_data_in[39]
*148 la_data_in[3]
*149 la_data_in[40]
*150 la_data_in[41]
*151 la_data_in[42]
*152 la_data_in[43]
*153 la_data_in[44]
*154 la_data_in[45]
*155 la_data_in[46]
*156 la_data_in[47]
*157 la_data_in[48]
*158 la_data_in[49]
*159 la_data_in[4]
*160 la_data_in[50]
*161 la_data_in[51]
*162 la_data_in[52]
*163 la_data_in[53]
*164 la_data_in[54]
*165 la_data_in[55]
*166 la_data_in[56]
*167 la_data_in[57]
*168 la_data_in[58]
*169 la_data_in[59]
*170 la_data_in[5]
*171 la_data_in[60]
*172 la_data_in[61]
*173 la_data_in[62]
*174 la_data_in[63]
*175 la_data_in[6]
*176 la_data_in[7]
*177 la_data_in[8]
*178 la_data_in[9]
*179 la_data_out[0]
*180 la_data_out[10]
*181 la_data_out[11]
*182 la_data_out[12]
*183 la_data_out[13]
*184 la_data_out[14]
*185 la_data_out[15]
*186 la_data_out[16]
*187 la_data_out[17]
*188 la_data_out[18]
*189 la_data_out[19]
*190 la_data_out[1]
*191 la_data_out[20]
*192 la_data_out[21]
*193 la_data_out[22]
*194 la_data_out[23]
*195 la_data_out[24]
*196 la_data_out[25]
*197 la_data_out[26]
*198 la_data_out[27]
*199 la_data_out[28]
*200 la_data_out[29]
*201 la_data_out[2]
*202 la_data_out[30]
*203 la_data_out[31]
*204 la_data_out[32]
*205 la_data_out[33]
*206 la_data_out[34]
*207 la_data_out[35]
*208 la_data_out[36]
*209 la_data_out[37]
*210 la_data_out[38]
*211 la_data_out[39]
*212 la_data_out[3]
*213 la_data_out[40]
*214 la_data_out[41]
*215 la_data_out[42]
*216 la_data_out[43]
*217 la_data_out[44]
*218 la_data_out[45]
*219 la_data_out[46]
*220 la_data_out[47]
*221 la_data_out[48]
*222 la_data_out[49]
*223 la_data_out[4]
*224 la_data_out[50]
*225 la_data_out[51]
*226 la_data_out[52]
*227 la_data_out[53]
*228 la_data_out[54]
*229 la_data_out[55]
*230 la_data_out[56]
*231 la_data_out[57]
*232 la_data_out[58]
*233 la_data_out[59]
*234 la_data_out[5]
*235 la_data_out[60]
*236 la_data_out[61]
*237 la_data_out[62]
*238 la_data_out[63]
*239 la_data_out[6]
*240 la_data_out[7]
*241 la_data_out[8]
*242 la_data_out[9]
*243 la_oenb[0]
*244 la_oenb[10]
*245 la_oenb[11]
*246 la_oenb[12]
*247 la_oenb[13]
*248 la_oenb[14]
*249 la_oenb[15]
*250 la_oenb[16]
*251 la_oenb[17]
*252 la_oenb[18]
*253 la_oenb[19]
*254 la_oenb[1]
*255 la_oenb[20]
*256 la_oenb[21]
*257 la_oenb[22]
*258 la_oenb[23]
*259 la_oenb[24]
*260 la_oenb[25]
*261 la_oenb[26]
*262 la_oenb[27]
*263 la_oenb[28]
*264 la_oenb[29]
*265 la_oenb[2]
*266 la_oenb[30]
*267 la_oenb[31]
*268 la_oenb[32]
*269 la_oenb[33]
*270 la_oenb[34]
*271 la_oenb[35]
*272 la_oenb[36]
*273 la_oenb[37]
*274 la_oenb[38]
*275 la_oenb[39]
*276 la_oenb[3]
*277 la_oenb[40]
*278 la_oenb[41]
*279 la_oenb[42]
*280 la_oenb[43]
*281 la_oenb[44]
*282 la_oenb[45]
*283 la_oenb[46]
*284 la_oenb[47]
*285 la_oenb[48]
*286 la_oenb[49]
*287 la_oenb[4]
*288 la_oenb[50]
*289 la_oenb[51]
*290 la_oenb[52]
*291 la_oenb[53]
*292 la_oenb[54]
*293 la_oenb[55]
*294 la_oenb[56]
*295 la_oenb[57]
*296 la_oenb[58]
*297 la_oenb[59]
*298 la_oenb[5]
*299 la_oenb[60]
*300 la_oenb[61]
*301 la_oenb[62]
*302 la_oenb[63]
*303 la_oenb[6]
*304 la_oenb[7]
*305 la_oenb[8]
*306 la_oenb[9]
*307 user_clock2
*308 user_irq[0]
*309 user_irq[1]
*310 user_irq[2]
*313 wb_clk_i
*314 wb_rst_i
*315 wbs_ack_o
*316 wbs_adr_i[0]
*317 wbs_adr_i[10]
*318 wbs_adr_i[11]
*319 wbs_adr_i[12]
*320 wbs_adr_i[13]
*321 wbs_adr_i[14]
*322 wbs_adr_i[15]
*323 wbs_adr_i[16]
*324 wbs_adr_i[17]
*325 wbs_adr_i[18]
*326 wbs_adr_i[19]
*327 wbs_adr_i[1]
*328 wbs_adr_i[20]
*329 wbs_adr_i[21]
*330 wbs_adr_i[22]
*331 wbs_adr_i[23]
*332 wbs_adr_i[24]
*333 wbs_adr_i[25]
*334 wbs_adr_i[26]
*335 wbs_adr_i[27]
*336 wbs_adr_i[28]
*337 wbs_adr_i[29]
*338 wbs_adr_i[2]
*339 wbs_adr_i[30]
*340 wbs_adr_i[31]
*341 wbs_adr_i[3]
*342 wbs_adr_i[4]
*343 wbs_adr_i[5]
*344 wbs_adr_i[6]
*345 wbs_adr_i[7]
*346 wbs_adr_i[8]
*347 wbs_adr_i[9]
*348 wbs_cyc_i
*349 wbs_dat_i[0]
*350 wbs_dat_i[10]
*351 wbs_dat_i[11]
*352 wbs_dat_i[12]
*353 wbs_dat_i[13]
*354 wbs_dat_i[14]
*355 wbs_dat_i[15]
*356 wbs_dat_i[16]
*357 wbs_dat_i[17]
*358 wbs_dat_i[18]
*359 wbs_dat_i[19]
*360 wbs_dat_i[1]
*361 wbs_dat_i[20]
*362 wbs_dat_i[21]
*363 wbs_dat_i[22]
*364 wbs_dat_i[23]
*365 wbs_dat_i[24]
*366 wbs_dat_i[25]
*367 wbs_dat_i[26]
*368 wbs_dat_i[27]
*369 wbs_dat_i[28]
*370 wbs_dat_i[29]
*371 wbs_dat_i[2]
*372 wbs_dat_i[30]
*373 wbs_dat_i[31]
*374 wbs_dat_i[3]
*375 wbs_dat_i[4]
*376 wbs_dat_i[5]
*377 wbs_dat_i[6]
*378 wbs_dat_i[7]
*379 wbs_dat_i[8]
*380 wbs_dat_i[9]
*381 wbs_dat_o[0]
*382 wbs_dat_o[10]
*383 wbs_dat_o[11]
*384 wbs_dat_o[12]
*385 wbs_dat_o[13]
*386 wbs_dat_o[14]
*387 wbs_dat_o[15]
*388 wbs_dat_o[16]
*389 wbs_dat_o[17]
*390 wbs_dat_o[18]
*391 wbs_dat_o[19]
*392 wbs_dat_o[1]
*393 wbs_dat_o[20]
*394 wbs_dat_o[21]
*395 wbs_dat_o[22]
*396 wbs_dat_o[23]
*397 wbs_dat_o[24]
*398 wbs_dat_o[25]
*399 wbs_dat_o[26]
*400 wbs_dat_o[27]
*401 wbs_dat_o[28]
*402 wbs_dat_o[29]
*403 wbs_dat_o[2]
*404 wbs_dat_o[30]
*405 wbs_dat_o[31]
*406 wbs_dat_o[3]
*407 wbs_dat_o[4]
*408 wbs_dat_o[5]
*409 wbs_dat_o[6]
*410 wbs_dat_o[7]
*411 wbs_dat_o[8]
*412 wbs_dat_o[9]
*413 wbs_sel_i[0]
*414 wbs_sel_i[1]
*415 wbs_sel_i[2]
*416 wbs_sel_i[3]
*417 wbs_stb_i
*418 wbs_we_i
*419 mprj

*PORTS
io_in[0] I
io_in[10] I
io_in[11] I
io_in[12] I
io_in[13] I
io_in[14] I
io_in[15] I
io_in[16] I
io_in[17] I
io_in[18] I
io_in[19] I
io_in[1] I
io_in[20] I
io_in[21] I
io_in[22] I
io_in[23] I
io_in[24] I
io_in[25] I
io_in[26] I
io_in[27] I
io_in[28] I
io_in[29] I
io_in[2] I
io_in[30] I
io_in[31] I
io_in[32] I
io_in[33] I
io_in[34] I
io_in[35] I
io_in[36] I
io_in[37] I
io_in[3] I
io_in[4] I
io_in[5] I
io_in[6] I
io_in[7] I
io_in[8] I
io_in[9] I
io_oeb[0] O
io_oeb[10] O
io_oeb[11] O
io_oeb[12] O
io_oeb[13] O
io_oeb[14] O
io_oeb[15] O
io_oeb[16] O
io_oeb[17] O
io_oeb[18] O
io_oeb[19] O
io_oeb[1] O
io_oeb[20] O
io_oeb[21] O
io_oeb[22] O
io_oeb[23] O
io_oeb[24] O
io_oeb[25] O
io_oeb[26] O
io_oeb[27] O
io_oeb[28] O
io_oeb[29] O
io_oeb[2] O
io_oeb[30] O
io_oeb[31] O
io_oeb[32] O
io_oeb[33] O
io_oeb[34] O
io_oeb[35] O
io_oeb[36] O
io_oeb[37] O
io_oeb[3] O
io_oeb[4] O
io_oeb[5] O
io_oeb[6] O
io_oeb[7] O
io_oeb[8] O
io_oeb[9] O
io_out[0] O
io_out[10] O
io_out[11] O
io_out[12] O
io_out[13] O
io_out[14] O
io_out[15] O
io_out[16] O
io_out[17] O
io_out[18] O
io_out[19] O
io_out[1] O
io_out[20] O
io_out[21] O
io_out[22] O
io_out[23] O
io_out[24] O
io_out[25] O
io_out[26] O
io_out[27] O
io_out[28] O
io_out[29] O
io_out[2] O
io_out[30] O
io_out[31] O
io_out[32] O
io_out[33] O
io_out[34] O
io_out[35] O
io_out[36] O
io_out[37] O
io_out[3] O
io_out[4] O
io_out[5] O
io_out[6] O
io_out[7] O
io_out[8] O
io_out[9] O
la_data_in[0] I
la_data_in[10] I
la_data_in[11] I
la_data_in[12] I
la_data_in[13] I
la_data_in[14] I
la_data_in[15] I
la_data_in[16] I
la_data_in[17] I
la_data_in[18] I
la_data_in[19] I
la_data_in[1] I
la_data_in[20] I
la_data_in[21] I
la_data_in[22] I
la_data_in[23] I
la_data_in[24] I
la_data_in[25] I
la_data_in[26] I
la_data_in[27] I
la_data_in[28] I
la_data_in[29] I
la_data_in[2] I
la_data_in[30] I
la_data_in[31] I
la_data_in[32] I
la_data_in[33] I
la_data_in[34] I
la_data_in[35] I
la_data_in[36] I
la_data_in[37] I
la_data_in[38] I
la_data_in[39] I
la_data_in[3] I
la_data_in[40] I
la_data_in[41] I
la_data_in[42] I
la_data_in[43] I
la_data_in[44] I
la_data_in[45] I
la_data_in[46] I
la_data_in[47] I
la_data_in[48] I
la_data_in[49] I
la_data_in[4] I
la_data_in[50] I
la_data_in[51] I
la_data_in[52] I
la_data_in[53] I
la_data_in[54] I
la_data_in[55] I
la_data_in[56] I
la_data_in[57] I
la_data_in[58] I
la_data_in[59] I
la_data_in[5] I
la_data_in[60] I
la_data_in[61] I
la_data_in[62] I
la_data_in[63] I
la_data_in[6] I
la_data_in[7] I
la_data_in[8] I
la_data_in[9] I
la_data_out[0] O
la_data_out[10] O
la_data_out[11] O
la_data_out[12] O
la_data_out[13] O
la_data_out[14] O
la_data_out[15] O
la_data_out[16] O
la_data_out[17] O
la_data_out[18] O
la_data_out[19] O
la_data_out[1] O
la_data_out[20] O
la_data_out[21] O
la_data_out[22] O
la_data_out[23] O
la_data_out[24] O
la_data_out[25] O
la_data_out[26] O
la_data_out[27] O
la_data_out[28] O
la_data_out[29] O
la_data_out[2] O
la_data_out[30] O
la_data_out[31] O
la_data_out[32] O
la_data_out[33] O
la_data_out[34] O
la_data_out[35] O
la_data_out[36] O
la_data_out[37] O
la_data_out[38] O
la_data_out[39] O
la_data_out[3] O
la_data_out[40] O
la_data_out[41] O
la_data_out[42] O
la_data_out[43] O
la_data_out[44] O
la_data_out[45] O
la_data_out[46] O
la_data_out[47] O
la_data_out[48] O
la_data_out[49] O
la_data_out[4] O
la_data_out[50] O
la_data_out[51] O
la_data_out[52] O
la_data_out[53] O
la_data_out[54] O
la_data_out[55] O
la_data_out[56] O
la_data_out[57] O
la_data_out[58] O
la_data_out[59] O
la_data_out[5] O
la_data_out[60] O
la_data_out[61] O
la_data_out[62] O
la_data_out[63] O
la_data_out[6] O
la_data_out[7] O
la_data_out[8] O
la_data_out[9] O
la_oenb[0] I
la_oenb[10] I
la_oenb[11] I
la_oenb[12] I
la_oenb[13] I
la_oenb[14] I
la_oenb[15] I
la_oenb[16] I
la_oenb[17] I
la_oenb[18] I
la_oenb[19] I
la_oenb[1] I
la_oenb[20] I
la_oenb[21] I
la_oenb[22] I
la_oenb[23] I
la_oenb[24] I
la_oenb[25] I
la_oenb[26] I
la_oenb[27] I
la_oenb[28] I
la_oenb[29] I
la_oenb[2] I
la_oenb[30] I
la_oenb[31] I
la_oenb[32] I
la_oenb[33] I
la_oenb[34] I
la_oenb[35] I
la_oenb[36] I
la_oenb[37] I
la_oenb[38] I
la_oenb[39] I
la_oenb[3] I
la_oenb[40] I
la_oenb[41] I
la_oenb[42] I
la_oenb[43] I
la_oenb[44] I
la_oenb[45] I
la_oenb[46] I
la_oenb[47] I
la_oenb[48] I
la_oenb[49] I
la_oenb[4] I
la_oenb[50] I
la_oenb[51] I
la_oenb[52] I
la_oenb[53] I
la_oenb[54] I
la_oenb[55] I
la_oenb[56] I
la_oenb[57] I
la_oenb[58] I
la_oenb[59] I
la_oenb[5] I
la_oenb[60] I
la_oenb[61] I
la_oenb[62] I
la_oenb[63] I
la_oenb[6] I
la_oenb[7] I
la_oenb[8] I
la_oenb[9] I
user_clock2 I
user_irq[0] O
user_irq[1] O
user_irq[2] O
wb_clk_i I
wb_rst_i I
wbs_ack_o O
wbs_adr_i[0] I
wbs_adr_i[10] I
wbs_adr_i[11] I
wbs_adr_i[12] I
wbs_adr_i[13] I
wbs_adr_i[14] I
wbs_adr_i[15] I
wbs_adr_i[16] I
wbs_adr_i[17] I
wbs_adr_i[18] I
wbs_adr_i[19] I
wbs_adr_i[1] I
wbs_adr_i[20] I
wbs_adr_i[21] I
wbs_adr_i[22] I
wbs_adr_i[23] I
wbs_adr_i[24] I
wbs_adr_i[25] I
wbs_adr_i[26] I
wbs_adr_i[27] I
wbs_adr_i[28] I
wbs_adr_i[29] I
wbs_adr_i[2] I
wbs_adr_i[30] I
wbs_adr_i[31] I
wbs_adr_i[3] I
wbs_adr_i[4] I
wbs_adr_i[5] I
wbs_adr_i[6] I
wbs_adr_i[7] I
wbs_adr_i[8] I
wbs_adr_i[9] I
wbs_cyc_i I
wbs_dat_i[0] I
wbs_dat_i[10] I
wbs_dat_i[11] I
wbs_dat_i[12] I
wbs_dat_i[13] I
wbs_dat_i[14] I
wbs_dat_i[15] I
wbs_dat_i[16] I
wbs_dat_i[17] I
wbs_dat_i[18] I
wbs_dat_i[19] I
wbs_dat_i[1] I
wbs_dat_i[20] I
wbs_dat_i[21] I
wbs_dat_i[22] I
wbs_dat_i[23] I
wbs_dat_i[24] I
wbs_dat_i[25] I
wbs_dat_i[26] I
wbs_dat_i[27] I
wbs_dat_i[28] I
wbs_dat_i[29] I
wbs_dat_i[2] I
wbs_dat_i[30] I
wbs_dat_i[31] I
wbs_dat_i[3] I
wbs_dat_i[4] I
wbs_dat_i[5] I
wbs_dat_i[6] I
wbs_dat_i[7] I
wbs_dat_i[8] I
wbs_dat_i[9] I
wbs_dat_o[0] O
wbs_dat_o[10] O
wbs_dat_o[11] O
wbs_dat_o[12] O
wbs_dat_o[13] O
wbs_dat_o[14] O
wbs_dat_o[15] O
wbs_dat_o[16] O
wbs_dat_o[17] O
wbs_dat_o[18] O
wbs_dat_o[19] O
wbs_dat_o[1] O
wbs_dat_o[20] O
wbs_dat_o[21] O
wbs_dat_o[22] O
wbs_dat_o[23] O
wbs_dat_o[24] O
wbs_dat_o[25] O
wbs_dat_o[26] O
wbs_dat_o[27] O
wbs_dat_o[28] O
wbs_dat_o[29] O
wbs_dat_o[2] O
wbs_dat_o[30] O
wbs_dat_o[31] O
wbs_dat_o[3] O
wbs_dat_o[4] O
wbs_dat_o[5] O
wbs_dat_o[6] O
wbs_dat_o[7] O
wbs_dat_o[8] O
wbs_dat_o[9] O
wbs_sel_i[0] I
wbs_sel_i[1] I
wbs_sel_i[2] I
wbs_sel_i[3] I
wbs_stb_i I
wbs_we_i I

*D_NET *2 0.120886
*CONN
*P io_in[10] I
*I *419:io_in[5] I *D user_proj_example
*CAP
1 io_in[10] 0.00112292
2 *419:io_in[5] 0.00591992
3 *2:11 0.00591992
4 *2:9 0.0138648
5 *2:7 0.0149878
6 *2:9 *3:9 0.0128642
7 *2:9 *38:9 0.0662062
*RES
1 io_in[10] *2:7 13.496 
2 *2:7 *2:9 238.888 
3 *2:9 *2:11 4.5 
4 *2:11 *419:io_in[5] 51.844 
*END

*D_NET *3 0.149953
*CONN
*P io_in[11] I
*I *419:io_in[6] I *D user_proj_example
*CAP
1 io_in[11] 0.00116814
2 *419:io_in[6] 0.00585319
3 *3:11 0.00585319
4 *3:9 0.00487365
5 *3:7 0.00604179
6 *3:9 *6:9 0.0861135
7 *3:9 *38:9 0.0271856
8 *2:9 *3:9 0.0128642
*RES
1 io_in[11] *3:7 13.912 
2 *3:7 *3:9 215.176 
3 *3:9 *3:11 4.5 
4 *3:11 *419:io_in[6] 51.428 
*END

*D_NET *4 0.0713915
*CONN
*P io_in[12] I
*I *419:io_in[7] I *D user_proj_example
*CAP
1 io_in[12] 0.00545349
2 *419:io_in[7] 0.00156782
3 *4:9 0.0302423
4 *4:7 0.0286745
5 *4:5 0.00545349
*RES
1 io_in[12] *4:5 47.06 
2 *4:5 *4:7 4.5 
3 *4:7 *4:9 256.36 
4 *4:9 *419:io_in[7] 18.28 
*END

*D_NET *5 0.331245
*CONN
*P io_in[13] I
*I *419:io_in[8] I *D user_proj_example
*CAP
1 io_in[13] 0.125886
2 *419:io_in[8] 0.000315653
3 *5:9 0.0397365
4 *5:7 0.0394209
5 *5:5 0.125886
*RES
1 io_in[13] *5:5 1103.28 
2 *5:5 *5:7 4.5 
3 *5:7 *5:9 352.872 
4 *5:9 *419:io_in[8] 7.256 
*END

*D_NET *6 0.404544
*CONN
*P io_in[14] I
*I *419:io_in[9] I *D user_proj_example
*CAP
1 io_in[14] 0.00145946
2 *419:io_in[9] 1.72639e-05
3 *6:13 0.110149
4 *6:11 0.110132
5 *6:9 0.0412529
6 *6:7 0.0427124
7 *419:io_in[9] *56:21 2.0618e-05
8 *419:io_in[9] *93:18 0.000139952
9 *6:9 *38:9 0.0125469
10 *3:9 *6:9 0.0861135
*RES
1 io_in[14] *6:7 14.12 
2 *6:7 *6:9 507.799 
3 *6:9 *6:11 4.5 
4 *6:11 *6:13 466.817 
5 *6:13 *419:io_in[9] 9.34543 
*END

*D_NET *7 0.391161
*CONN
*P io_in[15] I
*I *419:io_in[10] I *D user_proj_example
*CAP
1 io_in[15] 0.00119402
2 *419:io_in[10] 5.98213e-05
3 *7:15 0.122675
4 *7:13 0.122615
5 *7:11 0.0715126
6 *7:9 0.0727066
7 *419:io_in[10] *93:18 0.000398788
*RES
1 io_in[15] *7:9 19.244 
2 *7:9 *7:11 640.696 
3 *7:11 *7:13 4.5 
4 *7:13 *7:15 462.185 
5 *7:15 *419:io_in[10] 9.98429 
*END

*D_NET *8 0.462665
*CONN
*P io_in[16] I
*I *419:io_in[11] I *D user_proj_example
*CAP
1 io_in[16] 0.00143634
2 *419:io_in[11] 0.000155536
3 *8:17 0.14898
4 *8:15 0.148824
5 *8:13 0.0807639
6 *8:11 0.0822002
7 *419:io_in[11] *93:18 8.98292e-05
8 *8:11 *92:13 0.000215216
*RES
1 io_in[16] *8:11 21.22 
2 *8:11 *8:13 721.927 
3 *8:13 *8:15 4.5 
4 *8:15 *8:17 408.908 
5 *8:17 *419:io_in[11] 10.3409 
*END

*D_NET *9 0.350897
*CONN
*P io_in[17] I
*I *419:io_in[12] I *D user_proj_example
*CAP
1 io_in[17] 0.00135567
2 *419:io_in[12] 0.00024386
3 *9:17 0.084291
4 *9:15 0.0840471
5 *9:13 0.0897684
6 *9:11 0.0911241
7 *9:11 *92:13 6.67191e-05
*RES
1 io_in[17] *9:11 19.972 
2 *9:11 *9:13 803.159 
3 *9:13 *9:15 4.5 
4 *9:15 *9:17 356.612 
5 *9:17 *419:io_in[12] 10.9574 
*END

*D_NET *10 0.344689
*CONN
*P io_in[18] I
*I *419:io_in[13] I *D user_proj_example
*CAP
1 io_in[18] 0.00147667
2 *419:io_in[13] 0.000272342
3 *10:17 0.0718593
4 *10:15 0.071587
5 *10:13 0.0988636
6 *10:11 0.10034
7 *10:11 *92:13 0.000289465
*RES
1 io_in[18] *10:11 21.844 
2 *10:11 *10:13 884.056 
3 *10:13 *10:15 4.5 
4 *10:15 *10:17 303.425 
5 *10:17 *419:io_in[13] 11.2843 
*END

*D_NET *11 0.338126
*CONN
*P io_in[19] I
*I *419:io_in[14] I *D user_proj_example
*CAP
1 io_in[19] 0.00139601
2 *419:io_in[14] 0.000304219
3 *11:17 0.059628
4 *11:15 0.0593238
5 *11:13 0.107969
6 *11:11 0.109365
7 *11:11 *92:13 0.000140968
*RES
1 io_in[19] *11:11 20.596 
2 *11:11 *11:13 965.287 
3 *11:13 *11:15 4.5 
4 *11:15 *11:17 251.217 
5 *11:17 *419:io_in[14] 11.5889 
*END

*D_NET *13 0.331234
*CONN
*P io_in[20] I
*I *419:io_in[15] I *D user_proj_example
*CAP
1 io_in[20] 0.00125517
2 *419:io_in[15] 0.000336095
3 *13:15 0.0472754
4 *13:13 0.0469394
5 *13:11 0.117087
6 *13:9 0.118342
*RES
1 io_in[20] *13:9 19.244 
2 *13:9 *13:11 1046.52 
3 *13:11 *13:13 4.5 
4 *13:13 *13:15 199.188 
5 *13:15 *419:io_in[15] 11.8934 
*END

*D_NET *34 0.093712
*CONN
*P io_in[5] I
*I *419:io_in[0] I *D user_proj_example
*CAP
1 io_in[5] 0.0061532
2 *419:io_in[0] 0.000835622
3 *34:9 0.0407028
4 *34:7 0.0398672
5 *34:5 0.0061532
*RES
1 io_in[5] *34:5 53.3 
2 *34:5 *34:7 4.5 
3 *34:7 *34:9 357.448 
4 *34:9 *419:io_in[0] 12.04 
*END

*D_NET *35 0.157349
*CONN
*P io_in[6] I
*I *419:io_in[1] I *D user_proj_example
*CAP
1 io_in[6] 0.00123377
2 *419:io_in[1] 0.00575507
3 *35:11 0.00575507
4 *35:9 0.0243886
5 *35:7 0.0256224
6 *35:9 *36:9 0.0945942
*RES
1 io_in[6] *35:7 14.12 
2 *35:7 *35:9 333.736 
3 *35:9 *35:11 4.5 
4 *35:11 *419:io_in[1] 51.22 
*END

*D_NET *36 0.189075
*CONN
*P io_in[7] I
*I *419:io_in[2] I *D user_proj_example
*CAP
1 io_in[7] 0.00121117
2 *419:io_in[2] 0.00742354
3 *36:11 0.00742354
4 *36:9 0.0155318
5 *36:7 0.016743
6 *36:9 *38:9 0.0461482
7 *35:9 *36:9 0.0945942
*RES
1 io_in[7] *36:7 13.912 
2 *36:7 *36:9 310.024 
3 *36:9 *36:11 4.5 
4 *36:11 *419:io_in[2] 51.428 
*END

*D_NET *37 0.0782334
*CONN
*P io_in[8] I
*I *419:io_in[3] I *D user_proj_example
*CAP
1 io_in[8] 0.00515741
2 *419:io_in[3] 0.00190691
3 *37:9 0.0339593
4 *37:7 0.0372098
*RES
1 io_in[8] *37:7 48.44 
2 *37:7 *37:9 286.312 
3 *37:9 *419:io_in[3] 21.4 
*END

*D_NET *38 0.179981
*CONN
*P io_in[9] I
*I *419:io_in[4] I *D user_proj_example
*CAP
1 io_in[9] 0.00141535
2 *419:io_in[4] 0.00587582
3 *38:11 0.00587582
4 *38:9 0.00665587
5 *38:7 0.00807122
6 *2:9 *38:9 0.0662062
7 *3:9 *38:9 0.0271856
8 *6:9 *38:9 0.0125469
9 *36:9 *38:9 0.0461482
*RES
1 io_in[9] *38:7 13.704 
2 *38:7 *38:9 262.6 
3 *38:9 *38:11 4.5 
4 *38:11 *419:io_in[4] 51.636 
*END

*D_NET *52 0.385067
*CONN
*P io_oeb[21] O
*I *419:io_oeb[0] O *D user_proj_example
*CAP
1 io_oeb[21] 0.00138906
2 *419:io_oeb[0] 0.00303513
3 *52:21 0.113843
4 *52:19 0.112453
5 *52:17 0.0755732
6 *52:15 0.0786084
7 io_oeb[21] *92:13 0.000165715
*RES
1 *419:io_oeb[0] *52:15 21.1535 
2 *52:15 *52:17 322.178 
3 *52:17 *52:19 4.5 
4 *52:19 *52:21 1005.74 
5 *52:21 io_oeb[21] 20.804 
*END

*D_NET *53 0.518739
*CONN
*P io_oeb[22] O
*I *419:io_oeb[1] O *D user_proj_example
*CAP
1 io_oeb[22] 0.00144933
2 *419:io_oeb[1] 0.000240442
3 *53:14 0.103063
4 *53:12 0.101613
5 *53:10 0.155909
6 *53:8 0.15615
7 io_oeb[22] *92:13 0.000314212
*RES
1 *419:io_oeb[1] *53:8 9.87286 
2 *53:8 *53:10 385.032 
3 *53:10 *53:12 4.5 
4 *53:12 *53:14 909.127 
5 *53:14 io_oeb[22] 22.052 
*END

*D_NET *54 0.390868
*CONN
*P io_oeb[23] O
*I *419:io_oeb[2] O *D user_proj_example
*CAP
1 io_oeb[23] 0.00134341
2 *419:io_oeb[2] 3.78568e-05
3 *54:14 0.0922423
4 *54:12 0.0908988
5 *54:10 0.103154
6 *54:8 0.103192
*RES
1 *419:io_oeb[2] *54:8 9.13743 
2 *54:8 *54:10 438.486 
3 *54:10 *54:12 4.5 
4 *54:12 *54:14 812.519 
5 *54:14 io_oeb[23] 20.18 
*END

*D_NET *55 0.707229
*CONN
*P io_oeb[24] O
*I *419:io_oeb[3] O *D user_proj_example
*CAP
1 io_oeb[24] 0.00065477
2 *419:io_oeb[3] 0.000519968
3 *55:19 0.00882754
4 *55:17 0.00817277
5 *55:15 0.105064
6 *55:13 0.105584
7 *55:13 *91:9 0.000119037
8 *55:19 *93:18 0.262149
9 *55:19 *94:18 0.216139
*RES
1 *419:io_oeb[3] *55:13 11.6758 
2 *55:13 *55:15 445.079 
3 *55:15 *55:17 4.5 
4 *55:17 *55:19 654.535 
5 *55:19 io_oeb[24] 10.376 
*END

*D_NET *56 0.412261
*CONN
*P io_oeb[25] O
*I *419:io_oeb[4] O *D user_proj_example
*CAP
1 io_oeb[25] 0.000876434
2 *419:io_oeb[4] 0.0031953
3 *56:21 0.0233517
4 *56:19 0.0224752
5 *56:17 0.102126
6 *56:15 0.105322
7 *56:21 *57:21 0.121692
8 *56:21 *93:18 0.0332022
9 *419:io_in[9] *56:21 2.0618e-05
*RES
1 *419:io_oeb[4] *56:15 21.5547 
2 *56:15 *56:17 433.72 
3 *56:17 *56:19 4.5 
4 *56:19 *56:21 479.303 
5 *56:21 io_oeb[25] 11.624 
*END

*D_NET *57 0.484895
*CONN
*P io_oeb[26] O
*I *419:io_oeb[5] O *D user_proj_example
*CAP
1 io_oeb[26] 0.000920556
2 *419:io_oeb[5] 0.0077389
3 *57:21 0.0182786
4 *57:19 0.017358
5 *57:17 0.155584
6 *57:15 0.163323
7 *56:21 *57:21 0.121692
*RES
1 *419:io_oeb[5] *57:15 21.3446 
2 *57:15 *57:17 433.631 
3 *57:17 *57:19 4.5 
4 *57:19 *57:21 303.736 
5 *57:21 io_oeb[26] 11.832 
*END

*D_NET *90 0.885362
*CONN
*P io_out[21] O
*I *419:io_out[0] O *D user_proj_example
*CAP
1 io_out[21] 0.00108807
2 *419:io_out[0] 0.000123445
3 *90:13 0.0440436
4 *90:11 0.0429555
5 *90:9 0.0675987
6 *90:7 0.0677221
7 *90:9 *91:9 0.367916
8 *90:13 *91:13 0.293915
*RES
1 *419:io_out[0] *90:7 5.592 
2 *90:7 *90:9 1039.69 
3 *90:9 *90:11 4.5 
4 *90:11 *90:13 737.672 
5 *90:13 io_out[21] 13.704 
*END

*D_NET *91 1.13791
*CONN
*P io_out[22] O
*I *419:io_out[1] O *D user_proj_example
*CAP
1 io_out[22] 0.00111232
2 *419:io_out[1] 0.000194673
3 *91:13 0.0103433
4 *91:11 0.00923096
5 *91:9 0.0559917
6 *91:7 0.0561864
7 *91:13 *92:13 0.342901
8 *55:13 *91:9 0.000119037
9 *90:9 *91:9 0.367916
10 *90:13 *91:13 0.293915
*RES
1 *419:io_out[1] *91:7 5.8 
2 *91:7 *91:9 941.928 
3 *91:9 *91:11 4.5 
4 *91:11 *91:13 860.808 
5 *91:13 io_out[22] 13.912 
*END

*D_NET *92 0.701136
*CONN
*P io_out[23] O
*I *419:io_out[2] O *D user_proj_example
*CAP
1 io_out[23] 0.00113656
2 *419:io_out[2] 0.000349242
3 *92:13 0.0653901
4 *92:11 0.0642535
5 *92:9 0.100191
6 *92:7 0.100541
7 *92:9 *95:9 0.0251814
8 io_oeb[21] *92:13 0.000165715
9 io_oeb[22] *92:13 0.000314212
10 *8:11 *92:13 0.000215216
11 *9:11 *92:13 6.67191e-05
12 *10:11 *92:13 0.000289465
13 *11:11 *92:13 0.000140968
14 *91:13 *92:13 0.342901
*RES
1 *419:io_out[2] *92:7 7.464 
2 *92:7 *92:9 845.624 
3 *92:9 *92:11 4.5 
4 *92:11 *92:13 986.648 
5 *92:13 io_out[23] 14.12 
*END

*D_NET *93 0.566646
*CONN
*P io_out[24] O
*I *419:io_out[3] O *D user_proj_example
*CAP
1 io_out[24] 0.000677376
2 *419:io_out[3] 0.00269721
3 *93:18 0.0304389
4 *93:16 0.0297615
5 *93:14 0.102197
6 *93:12 0.104894
7 *419:io_in[10] *93:18 0.000398788
8 *419:io_in[11] *93:18 8.98292e-05
9 *419:io_in[9] *93:18 0.000139952
10 *55:19 *93:18 0.262149
11 *56:21 *93:18 0.0332022
*RES
1 *419:io_out[3] *93:12 20.277 
2 *93:12 *93:14 434.165 
3 *93:14 *93:16 4.5 
4 *93:16 *93:18 715.175 
5 *93:18 io_out[24] 10.584 
*END

*D_NET *94 0.489531
*CONN
*P io_out[25] O
*I *419:io_out[4] O *D user_proj_example
*CAP
1 io_out[25] 0.000632163
2 *419:io_out[4] 0.00286721
3 *94:18 0.0315229
4 *94:16 0.0308908
5 *94:14 0.102306
6 *94:12 0.105173
7 *55:19 *94:18 0.216139
*RES
1 *419:io_out[4] *94:12 20.2006 
2 *94:12 *94:14 434.344 
3 *94:14 *94:16 4.5 
4 *94:16 *94:18 539.608 
5 *94:18 io_out[25] 10.168 
*END

*D_NET *95 0.346448
*CONN
*P io_out[26] O
*I *419:io_out[5] O *D user_proj_example
*CAP
1 io_out[26] 0.119593
2 *419:io_out[5] 0.000485464
3 *95:11 0.119593
4 *95:9 0.040555
5 *95:7 0.0410404
6 *92:9 *95:9 0.0251814
*RES
1 *419:io_out[5] *95:7 7.672 
2 *95:7 *95:9 363.896 
3 *95:9 *95:11 4.5 
4 *95:11 io_out[26] 1047.96 
*END

*D_NET *313 0.126673
*CONN
*P wb_clk_i I
*I *419:wb_clk_i I *D user_proj_example
*CAP
1 wb_clk_i 0.000160759
2 *419:wb_clk_i 0.000756927
3 *313:13 0.0150659
4 *313:11 0.0144697
5 *313:13 *314:13 0.0962197
*RES
1 wb_clk_i *313:11 6.008 
2 *313:11 *313:13 244.088 
3 *313:13 *419:wb_clk_i 10.688 
*END

*D_NET *314 0.243854
*CONN
*P wb_rst_i I
*I *419:wb_rst_i I *D user_proj_example
*CAP
1 wb_rst_i 0.000136515
2 *419:wb_rst_i 0.000809266
3 *314:13 0.0736809
4 *314:11 0.0730081
5 *313:13 *314:13 0.0962197
*RES
1 wb_rst_i *314:11 5.8 
2 *314:11 *314:13 759.72 
3 *314:13 *419:wb_rst_i 11.312 
*END
