*SPEF "ieee 1481-1999"
*DESIGN "user_project_wrapper"
*DATE "11:11:11 Fri 11 11, 1111"
*VENDOR "OpenRCX"
*PROGRAM "Parallel Extraction"
*VERSION "1.0"
*DESIGN_FLOW "NAME_SCOPE LOCAL" "PIN_CAP NONE"
*DIVIDER /
*DELIMITER :
*BUS_DELIMITER []
*T_UNIT 1 NS
*C_UNIT 1 PF
*R_UNIT 1 OHM
*L_UNIT 1 HENRY

*NAME_MAP
*1 io_in[0]
*2 io_in[10]
*3 io_in[11]
*4 io_in[12]
*5 io_in[13]
*6 io_in[14]
*7 io_in[15]
*8 io_in[16]
*9 io_in[17]
*10 io_in[18]
*11 io_in[19]
*12 io_in[1]
*13 io_in[20]
*14 io_in[21]
*15 io_in[22]
*16 io_in[23]
*17 io_in[24]
*18 io_in[25]
*19 io_in[26]
*20 io_in[27]
*21 io_in[28]
*22 io_in[29]
*23 io_in[2]
*24 io_in[30]
*25 io_in[31]
*26 io_in[32]
*27 io_in[33]
*28 io_in[34]
*29 io_in[35]
*30 io_in[36]
*31 io_in[37]
*32 io_in[3]
*33 io_in[4]
*34 io_in[5]
*35 io_in[6]
*36 io_in[7]
*37 io_in[8]
*38 io_in[9]
*39 io_oeb[0]
*40 io_oeb[10]
*41 io_oeb[11]
*42 io_oeb[12]
*43 io_oeb[13]
*44 io_oeb[14]
*45 io_oeb[15]
*46 io_oeb[16]
*47 io_oeb[17]
*48 io_oeb[18]
*49 io_oeb[19]
*50 io_oeb[1]
*51 io_oeb[20]
*52 io_oeb[21]
*53 io_oeb[22]
*54 io_oeb[23]
*55 io_oeb[24]
*56 io_oeb[25]
*57 io_oeb[26]
*58 io_oeb[27]
*59 io_oeb[28]
*60 io_oeb[29]
*61 io_oeb[2]
*62 io_oeb[30]
*63 io_oeb[31]
*64 io_oeb[32]
*65 io_oeb[33]
*66 io_oeb[34]
*67 io_oeb[35]
*68 io_oeb[36]
*69 io_oeb[37]
*70 io_oeb[3]
*71 io_oeb[4]
*72 io_oeb[5]
*73 io_oeb[6]
*74 io_oeb[7]
*75 io_oeb[8]
*76 io_oeb[9]
*77 io_out[0]
*78 io_out[10]
*79 io_out[11]
*80 io_out[12]
*81 io_out[13]
*82 io_out[14]
*83 io_out[15]
*84 io_out[16]
*85 io_out[17]
*86 io_out[18]
*87 io_out[19]
*88 io_out[1]
*89 io_out[20]
*90 io_out[21]
*91 io_out[22]
*92 io_out[23]
*93 io_out[24]
*94 io_out[25]
*95 io_out[26]
*96 io_out[27]
*97 io_out[28]
*98 io_out[29]
*99 io_out[2]
*100 io_out[30]
*101 io_out[31]
*102 io_out[32]
*103 io_out[33]
*104 io_out[34]
*105 io_out[35]
*106 io_out[36]
*107 io_out[37]
*108 io_out[3]
*109 io_out[4]
*110 io_out[5]
*111 io_out[6]
*112 io_out[7]
*113 io_out[8]
*114 io_out[9]
*115 la_data_in[0]
*116 la_data_in[10]
*117 la_data_in[11]
*118 la_data_in[12]
*119 la_data_in[13]
*120 la_data_in[14]
*121 la_data_in[15]
*122 la_data_in[16]
*123 la_data_in[17]
*124 la_data_in[18]
*125 la_data_in[19]
*126 la_data_in[1]
*127 la_data_in[20]
*128 la_data_in[21]
*129 la_data_in[22]
*130 la_data_in[23]
*131 la_data_in[24]
*132 la_data_in[25]
*133 la_data_in[26]
*134 la_data_in[27]
*135 la_data_in[28]
*136 la_data_in[29]
*137 la_data_in[2]
*138 la_data_in[30]
*139 la_data_in[31]
*140 la_data_in[32]
*141 la_data_in[33]
*142 la_data_in[34]
*143 la_data_in[35]
*144 la_data_in[36]
*145 la_data_in[37]
*146 la_data_in[38]
*147 la_data_in[39]
*148 la_data_in[3]
*149 la_data_in[40]
*150 la_data_in[41]
*151 la_data_in[42]
*152 la_data_in[43]
*153 la_data_in[44]
*154 la_data_in[45]
*155 la_data_in[46]
*156 la_data_in[47]
*157 la_data_in[48]
*158 la_data_in[49]
*159 la_data_in[4]
*160 la_data_in[50]
*161 la_data_in[51]
*162 la_data_in[52]
*163 la_data_in[53]
*164 la_data_in[54]
*165 la_data_in[55]
*166 la_data_in[56]
*167 la_data_in[57]
*168 la_data_in[58]
*169 la_data_in[59]
*170 la_data_in[5]
*171 la_data_in[60]
*172 la_data_in[61]
*173 la_data_in[62]
*174 la_data_in[63]
*175 la_data_in[6]
*176 la_data_in[7]
*177 la_data_in[8]
*178 la_data_in[9]
*179 la_data_out[0]
*180 la_data_out[10]
*181 la_data_out[11]
*182 la_data_out[12]
*183 la_data_out[13]
*184 la_data_out[14]
*185 la_data_out[15]
*186 la_data_out[16]
*187 la_data_out[17]
*188 la_data_out[18]
*189 la_data_out[19]
*190 la_data_out[1]
*191 la_data_out[20]
*192 la_data_out[21]
*193 la_data_out[22]
*194 la_data_out[23]
*195 la_data_out[24]
*196 la_data_out[25]
*197 la_data_out[26]
*198 la_data_out[27]
*199 la_data_out[28]
*200 la_data_out[29]
*201 la_data_out[2]
*202 la_data_out[30]
*203 la_data_out[31]
*204 la_data_out[32]
*205 la_data_out[33]
*206 la_data_out[34]
*207 la_data_out[35]
*208 la_data_out[36]
*209 la_data_out[37]
*210 la_data_out[38]
*211 la_data_out[39]
*212 la_data_out[3]
*213 la_data_out[40]
*214 la_data_out[41]
*215 la_data_out[42]
*216 la_data_out[43]
*217 la_data_out[44]
*218 la_data_out[45]
*219 la_data_out[46]
*220 la_data_out[47]
*221 la_data_out[48]
*222 la_data_out[49]
*223 la_data_out[4]
*224 la_data_out[50]
*225 la_data_out[51]
*226 la_data_out[52]
*227 la_data_out[53]
*228 la_data_out[54]
*229 la_data_out[55]
*230 la_data_out[56]
*231 la_data_out[57]
*232 la_data_out[58]
*233 la_data_out[59]
*234 la_data_out[5]
*235 la_data_out[60]
*236 la_data_out[61]
*237 la_data_out[62]
*238 la_data_out[63]
*239 la_data_out[6]
*240 la_data_out[7]
*241 la_data_out[8]
*242 la_data_out[9]
*243 la_oenb[0]
*244 la_oenb[10]
*245 la_oenb[11]
*246 la_oenb[12]
*247 la_oenb[13]
*248 la_oenb[14]
*249 la_oenb[15]
*250 la_oenb[16]
*251 la_oenb[17]
*252 la_oenb[18]
*253 la_oenb[19]
*254 la_oenb[1]
*255 la_oenb[20]
*256 la_oenb[21]
*257 la_oenb[22]
*258 la_oenb[23]
*259 la_oenb[24]
*260 la_oenb[25]
*261 la_oenb[26]
*262 la_oenb[27]
*263 la_oenb[28]
*264 la_oenb[29]
*265 la_oenb[2]
*266 la_oenb[30]
*267 la_oenb[31]
*268 la_oenb[32]
*269 la_oenb[33]
*270 la_oenb[34]
*271 la_oenb[35]
*272 la_oenb[36]
*273 la_oenb[37]
*274 la_oenb[38]
*275 la_oenb[39]
*276 la_oenb[3]
*277 la_oenb[40]
*278 la_oenb[41]
*279 la_oenb[42]
*280 la_oenb[43]
*281 la_oenb[44]
*282 la_oenb[45]
*283 la_oenb[46]
*284 la_oenb[47]
*285 la_oenb[48]
*286 la_oenb[49]
*287 la_oenb[4]
*288 la_oenb[50]
*289 la_oenb[51]
*290 la_oenb[52]
*291 la_oenb[53]
*292 la_oenb[54]
*293 la_oenb[55]
*294 la_oenb[56]
*295 la_oenb[57]
*296 la_oenb[58]
*297 la_oenb[59]
*298 la_oenb[5]
*299 la_oenb[60]
*300 la_oenb[61]
*301 la_oenb[62]
*302 la_oenb[63]
*303 la_oenb[6]
*304 la_oenb[7]
*305 la_oenb[8]
*306 la_oenb[9]
*307 user_clock2
*308 user_irq[0]
*309 user_irq[1]
*310 user_irq[2]
*313 wb_clk_i
*314 wb_rst_i
*315 wbs_ack_o
*316 wbs_adr_i[0]
*317 wbs_adr_i[10]
*318 wbs_adr_i[11]
*319 wbs_adr_i[12]
*320 wbs_adr_i[13]
*321 wbs_adr_i[14]
*322 wbs_adr_i[15]
*323 wbs_adr_i[16]
*324 wbs_adr_i[17]
*325 wbs_adr_i[18]
*326 wbs_adr_i[19]
*327 wbs_adr_i[1]
*328 wbs_adr_i[20]
*329 wbs_adr_i[21]
*330 wbs_adr_i[22]
*331 wbs_adr_i[23]
*332 wbs_adr_i[24]
*333 wbs_adr_i[25]
*334 wbs_adr_i[26]
*335 wbs_adr_i[27]
*336 wbs_adr_i[28]
*337 wbs_adr_i[29]
*338 wbs_adr_i[2]
*339 wbs_adr_i[30]
*340 wbs_adr_i[31]
*341 wbs_adr_i[3]
*342 wbs_adr_i[4]
*343 wbs_adr_i[5]
*344 wbs_adr_i[6]
*345 wbs_adr_i[7]
*346 wbs_adr_i[8]
*347 wbs_adr_i[9]
*348 wbs_cyc_i
*349 wbs_dat_i[0]
*350 wbs_dat_i[10]
*351 wbs_dat_i[11]
*352 wbs_dat_i[12]
*353 wbs_dat_i[13]
*354 wbs_dat_i[14]
*355 wbs_dat_i[15]
*356 wbs_dat_i[16]
*357 wbs_dat_i[17]
*358 wbs_dat_i[18]
*359 wbs_dat_i[19]
*360 wbs_dat_i[1]
*361 wbs_dat_i[20]
*362 wbs_dat_i[21]
*363 wbs_dat_i[22]
*364 wbs_dat_i[23]
*365 wbs_dat_i[24]
*366 wbs_dat_i[25]
*367 wbs_dat_i[26]
*368 wbs_dat_i[27]
*369 wbs_dat_i[28]
*370 wbs_dat_i[29]
*371 wbs_dat_i[2]
*372 wbs_dat_i[30]
*373 wbs_dat_i[31]
*374 wbs_dat_i[3]
*375 wbs_dat_i[4]
*376 wbs_dat_i[5]
*377 wbs_dat_i[6]
*378 wbs_dat_i[7]
*379 wbs_dat_i[8]
*380 wbs_dat_i[9]
*381 wbs_dat_o[0]
*382 wbs_dat_o[10]
*383 wbs_dat_o[11]
*384 wbs_dat_o[12]
*385 wbs_dat_o[13]
*386 wbs_dat_o[14]
*387 wbs_dat_o[15]
*388 wbs_dat_o[16]
*389 wbs_dat_o[17]
*390 wbs_dat_o[18]
*391 wbs_dat_o[19]
*392 wbs_dat_o[1]
*393 wbs_dat_o[20]
*394 wbs_dat_o[21]
*395 wbs_dat_o[22]
*396 wbs_dat_o[23]
*397 wbs_dat_o[24]
*398 wbs_dat_o[25]
*399 wbs_dat_o[26]
*400 wbs_dat_o[27]
*401 wbs_dat_o[28]
*402 wbs_dat_o[29]
*403 wbs_dat_o[2]
*404 wbs_dat_o[30]
*405 wbs_dat_o[31]
*406 wbs_dat_o[3]
*407 wbs_dat_o[4]
*408 wbs_dat_o[5]
*409 wbs_dat_o[6]
*410 wbs_dat_o[7]
*411 wbs_dat_o[8]
*412 wbs_dat_o[9]
*413 wbs_sel_i[0]
*414 wbs_sel_i[1]
*415 wbs_sel_i[2]
*416 wbs_sel_i[3]
*417 wbs_stb_i
*418 wbs_we_i
*419 mprj

*PORTS
io_in[0] I
io_in[10] I
io_in[11] I
io_in[12] I
io_in[13] I
io_in[14] I
io_in[15] I
io_in[16] I
io_in[17] I
io_in[18] I
io_in[19] I
io_in[1] I
io_in[20] I
io_in[21] I
io_in[22] I
io_in[23] I
io_in[24] I
io_in[25] I
io_in[26] I
io_in[27] I
io_in[28] I
io_in[29] I
io_in[2] I
io_in[30] I
io_in[31] I
io_in[32] I
io_in[33] I
io_in[34] I
io_in[35] I
io_in[36] I
io_in[37] I
io_in[3] I
io_in[4] I
io_in[5] I
io_in[6] I
io_in[7] I
io_in[8] I
io_in[9] I
io_oeb[0] O
io_oeb[10] O
io_oeb[11] O
io_oeb[12] O
io_oeb[13] O
io_oeb[14] O
io_oeb[15] O
io_oeb[16] O
io_oeb[17] O
io_oeb[18] O
io_oeb[19] O
io_oeb[1] O
io_oeb[20] O
io_oeb[21] O
io_oeb[22] O
io_oeb[23] O
io_oeb[24] O
io_oeb[25] O
io_oeb[26] O
io_oeb[27] O
io_oeb[28] O
io_oeb[29] O
io_oeb[2] O
io_oeb[30] O
io_oeb[31] O
io_oeb[32] O
io_oeb[33] O
io_oeb[34] O
io_oeb[35] O
io_oeb[36] O
io_oeb[37] O
io_oeb[3] O
io_oeb[4] O
io_oeb[5] O
io_oeb[6] O
io_oeb[7] O
io_oeb[8] O
io_oeb[9] O
io_out[0] O
io_out[10] O
io_out[11] O
io_out[12] O
io_out[13] O
io_out[14] O
io_out[15] O
io_out[16] O
io_out[17] O
io_out[18] O
io_out[19] O
io_out[1] O
io_out[20] O
io_out[21] O
io_out[22] O
io_out[23] O
io_out[24] O
io_out[25] O
io_out[26] O
io_out[27] O
io_out[28] O
io_out[29] O
io_out[2] O
io_out[30] O
io_out[31] O
io_out[32] O
io_out[33] O
io_out[34] O
io_out[35] O
io_out[36] O
io_out[37] O
io_out[3] O
io_out[4] O
io_out[5] O
io_out[6] O
io_out[7] O
io_out[8] O
io_out[9] O
la_data_in[0] I
la_data_in[10] I
la_data_in[11] I
la_data_in[12] I
la_data_in[13] I
la_data_in[14] I
la_data_in[15] I
la_data_in[16] I
la_data_in[17] I
la_data_in[18] I
la_data_in[19] I
la_data_in[1] I
la_data_in[20] I
la_data_in[21] I
la_data_in[22] I
la_data_in[23] I
la_data_in[24] I
la_data_in[25] I
la_data_in[26] I
la_data_in[27] I
la_data_in[28] I
la_data_in[29] I
la_data_in[2] I
la_data_in[30] I
la_data_in[31] I
la_data_in[32] I
la_data_in[33] I
la_data_in[34] I
la_data_in[35] I
la_data_in[36] I
la_data_in[37] I
la_data_in[38] I
la_data_in[39] I
la_data_in[3] I
la_data_in[40] I
la_data_in[41] I
la_data_in[42] I
la_data_in[43] I
la_data_in[44] I
la_data_in[45] I
la_data_in[46] I
la_data_in[47] I
la_data_in[48] I
la_data_in[49] I
la_data_in[4] I
la_data_in[50] I
la_data_in[51] I
la_data_in[52] I
la_data_in[53] I
la_data_in[54] I
la_data_in[55] I
la_data_in[56] I
la_data_in[57] I
la_data_in[58] I
la_data_in[59] I
la_data_in[5] I
la_data_in[60] I
la_data_in[61] I
la_data_in[62] I
la_data_in[63] I
la_data_in[6] I
la_data_in[7] I
la_data_in[8] I
la_data_in[9] I
la_data_out[0] O
la_data_out[10] O
la_data_out[11] O
la_data_out[12] O
la_data_out[13] O
la_data_out[14] O
la_data_out[15] O
la_data_out[16] O
la_data_out[17] O
la_data_out[18] O
la_data_out[19] O
la_data_out[1] O
la_data_out[20] O
la_data_out[21] O
la_data_out[22] O
la_data_out[23] O
la_data_out[24] O
la_data_out[25] O
la_data_out[26] O
la_data_out[27] O
la_data_out[28] O
la_data_out[29] O
la_data_out[2] O
la_data_out[30] O
la_data_out[31] O
la_data_out[32] O
la_data_out[33] O
la_data_out[34] O
la_data_out[35] O
la_data_out[36] O
la_data_out[37] O
la_data_out[38] O
la_data_out[39] O
la_data_out[3] O
la_data_out[40] O
la_data_out[41] O
la_data_out[42] O
la_data_out[43] O
la_data_out[44] O
la_data_out[45] O
la_data_out[46] O
la_data_out[47] O
la_data_out[48] O
la_data_out[49] O
la_data_out[4] O
la_data_out[50] O
la_data_out[51] O
la_data_out[52] O
la_data_out[53] O
la_data_out[54] O
la_data_out[55] O
la_data_out[56] O
la_data_out[57] O
la_data_out[58] O
la_data_out[59] O
la_data_out[5] O
la_data_out[60] O
la_data_out[61] O
la_data_out[62] O
la_data_out[63] O
la_data_out[6] O
la_data_out[7] O
la_data_out[8] O
la_data_out[9] O
la_oenb[0] I
la_oenb[10] I
la_oenb[11] I
la_oenb[12] I
la_oenb[13] I
la_oenb[14] I
la_oenb[15] I
la_oenb[16] I
la_oenb[17] I
la_oenb[18] I
la_oenb[19] I
la_oenb[1] I
la_oenb[20] I
la_oenb[21] I
la_oenb[22] I
la_oenb[23] I
la_oenb[24] I
la_oenb[25] I
la_oenb[26] I
la_oenb[27] I
la_oenb[28] I
la_oenb[29] I
la_oenb[2] I
la_oenb[30] I
la_oenb[31] I
la_oenb[32] I
la_oenb[33] I
la_oenb[34] I
la_oenb[35] I
la_oenb[36] I
la_oenb[37] I
la_oenb[38] I
la_oenb[39] I
la_oenb[3] I
la_oenb[40] I
la_oenb[41] I
la_oenb[42] I
la_oenb[43] I
la_oenb[44] I
la_oenb[45] I
la_oenb[46] I
la_oenb[47] I
la_oenb[48] I
la_oenb[49] I
la_oenb[4] I
la_oenb[50] I
la_oenb[51] I
la_oenb[52] I
la_oenb[53] I
la_oenb[54] I
la_oenb[55] I
la_oenb[56] I
la_oenb[57] I
la_oenb[58] I
la_oenb[59] I
la_oenb[5] I
la_oenb[60] I
la_oenb[61] I
la_oenb[62] I
la_oenb[63] I
la_oenb[6] I
la_oenb[7] I
la_oenb[8] I
la_oenb[9] I
user_clock2 I
user_irq[0] O
user_irq[1] O
user_irq[2] O
wb_clk_i I
wb_rst_i I
wbs_ack_o O
wbs_adr_i[0] I
wbs_adr_i[10] I
wbs_adr_i[11] I
wbs_adr_i[12] I
wbs_adr_i[13] I
wbs_adr_i[14] I
wbs_adr_i[15] I
wbs_adr_i[16] I
wbs_adr_i[17] I
wbs_adr_i[18] I
wbs_adr_i[19] I
wbs_adr_i[1] I
wbs_adr_i[20] I
wbs_adr_i[21] I
wbs_adr_i[22] I
wbs_adr_i[23] I
wbs_adr_i[24] I
wbs_adr_i[25] I
wbs_adr_i[26] I
wbs_adr_i[27] I
wbs_adr_i[28] I
wbs_adr_i[29] I
wbs_adr_i[2] I
wbs_adr_i[30] I
wbs_adr_i[31] I
wbs_adr_i[3] I
wbs_adr_i[4] I
wbs_adr_i[5] I
wbs_adr_i[6] I
wbs_adr_i[7] I
wbs_adr_i[8] I
wbs_adr_i[9] I
wbs_cyc_i I
wbs_dat_i[0] I
wbs_dat_i[10] I
wbs_dat_i[11] I
wbs_dat_i[12] I
wbs_dat_i[13] I
wbs_dat_i[14] I
wbs_dat_i[15] I
wbs_dat_i[16] I
wbs_dat_i[17] I
wbs_dat_i[18] I
wbs_dat_i[19] I
wbs_dat_i[1] I
wbs_dat_i[20] I
wbs_dat_i[21] I
wbs_dat_i[22] I
wbs_dat_i[23] I
wbs_dat_i[24] I
wbs_dat_i[25] I
wbs_dat_i[26] I
wbs_dat_i[27] I
wbs_dat_i[28] I
wbs_dat_i[29] I
wbs_dat_i[2] I
wbs_dat_i[30] I
wbs_dat_i[31] I
wbs_dat_i[3] I
wbs_dat_i[4] I
wbs_dat_i[5] I
wbs_dat_i[6] I
wbs_dat_i[7] I
wbs_dat_i[8] I
wbs_dat_i[9] I
wbs_dat_o[0] O
wbs_dat_o[10] O
wbs_dat_o[11] O
wbs_dat_o[12] O
wbs_dat_o[13] O
wbs_dat_o[14] O
wbs_dat_o[15] O
wbs_dat_o[16] O
wbs_dat_o[17] O
wbs_dat_o[18] O
wbs_dat_o[19] O
wbs_dat_o[1] O
wbs_dat_o[20] O
wbs_dat_o[21] O
wbs_dat_o[22] O
wbs_dat_o[23] O
wbs_dat_o[24] O
wbs_dat_o[25] O
wbs_dat_o[26] O
wbs_dat_o[27] O
wbs_dat_o[28] O
wbs_dat_o[29] O
wbs_dat_o[2] O
wbs_dat_o[30] O
wbs_dat_o[31] O
wbs_dat_o[3] O
wbs_dat_o[4] O
wbs_dat_o[5] O
wbs_dat_o[6] O
wbs_dat_o[7] O
wbs_dat_o[8] O
wbs_dat_o[9] O
wbs_sel_i[0] I
wbs_sel_i[1] I
wbs_sel_i[2] I
wbs_sel_i[3] I
wbs_stb_i I
wbs_we_i I

*D_NET *2 0.0990277
*CONN
*P io_in[10] I
*I *419:io_in[5] I *D user_proj_example
*CAP
1 io_in[10] 0.000984899
2 *419:io_in[5] 0.00532548
3 *2:9 0.0177246
4 *2:7 0.0133841
5 *2:9 *3:9 0.0112645
6 *2:9 *38:9 0.0503441
*RES
1 io_in[10] *2:7 11.074 
2 *2:7 *2:9 174.572 
3 *2:9 *419:io_in[5] 42.386 
*END

*D_NET *3 0.118456
*CONN
*P io_in[11] I
*I *419:io_in[6] I *D user_proj_example
*CAP
1 io_in[11] 0.00102617
2 *419:io_in[6] 0.00527052
3 *3:9 0.00949581
4 *3:7 0.00525146
5 *3:9 *6:9 0.0654766
6 *3:9 *38:9 0.0206711
7 *2:9 *3:9 0.0112645
*RES
1 io_in[11] *3:7 11.378 
2 *3:7 *3:9 157.244 
3 *3:9 *419:io_in[6] 42.082 
*END

*D_NET *4 0.0643416
*CONN
*P io_in[12] I
*I *419:io_in[7] I *D user_proj_example
*CAP
1 io_in[12] 0.00488464
2 *419:io_in[7] 0.00141204
3 *4:9 0.0272861
4 *4:7 0.0307587
*RES
1 io_in[12] *4:7 38.89 
2 *4:7 *4:9 187.34 
3 *4:9 *419:io_in[7] 14.57 
*END

*D_NET *5 0.298256
*CONN
*P io_in[13] I
*I *419:io_in[8] I *D user_proj_example
*CAP
1 io_in[13] 0.113266
2 *419:io_in[8] 0.000283695
3 *5:9 0.0358619
4 *5:7 0.0355783
5 *5:5 0.113266
*RES
1 io_in[13] *5:5 806.246 
2 *5:5 *5:7 4.5 
3 *5:7 *5:9 257.868 
4 *5:9 *419:io_in[8] 6.514 
*END

*D_NET *6 0.351022
*CONN
*P io_in[14] I
*I *419:io_in[9] I *D user_proj_example
*CAP
1 io_in[14] 0.0012482
2 *419:io_in[9] 1.36025e-05
3 *6:13 0.0988609
4 *6:11 0.0988473
5 *6:9 0.0371077
6 *6:7 0.0383559
7 *419:io_in[9] *56:21 1.97454e-05
8 *419:io_in[9] *93:18 0.000106477
9 *6:9 *38:9 0.0109859
10 *3:9 *6:9 0.0654766
*RES
1 io_in[14] *6:7 11.53 
2 *6:7 *6:9 371.084 
3 *6:9 *6:11 4.5 
4 *6:11 *6:13 333.441 
5 *6:13 *419:io_in[9] 9.25243 
*END

*D_NET *7 0.349088
*CONN
*P io_in[15] I
*I *419:io_in[10] I *D user_proj_example
*CAP
1 io_in[15] 0.00107705
2 *419:io_in[10] 5.30252e-05
3 *7:15 0.108756
4 *7:13 0.108703
5 *7:11 0.0645587
6 *7:9 0.0656357
7 *419:io_in[10] *93:18 0.000303401
*RES
1 io_in[15] *7:9 16.486 
2 *7:9 *7:11 468.201 
3 *7:11 *7:13 4.5 
4 *7:13 *7:15 330.132 
5 *7:15 *419:io_in[10] 9.71929 
*END

*D_NET *8 0.40735
*CONN
*P io_in[16] I
*I *419:io_in[11] I *D user_proj_example
*CAP
1 io_in[16] 0.00126524
2 *419:io_in[11] 0.000137156
3 *8:17 0.129402
4 *8:15 0.129265
5 *8:13 0.0728751
6 *8:11 0.0741403
7 *419:io_in[11] *93:18 6.79364e-05
8 *8:11 *92:13 0.000197064
*RES
1 io_in[16] *8:11 17.93 
2 *8:11 *8:13 527.562 
3 *8:13 *8:15 4.5 
4 *8:15 *8:17 292.077 
5 *8:17 *419:io_in[11] 9.97986 
*END

*D_NET *9 0.315807
*CONN
*P io_in[17] I
*I *419:io_in[12] I *D user_proj_example
*CAP
1 io_in[17] 0.00119298
2 *419:io_in[12] 0.000213858
3 *9:17 0.0756622
4 *9:15 0.0754484
5 *9:13 0.0810174
6 *9:11 0.0822104
7 *9:11 *92:13 6.20697e-05
*RES
1 io_in[17] *9:11 17.018 
2 *9:11 *9:13 586.924 
3 *9:13 *9:15 4.5 
4 *9:15 *9:17 254.723 
5 *9:17 *419:io_in[12] 10.4304 
*END

*D_NET *10 0.310284
*CONN
*P io_in[18] I
*I *419:io_in[13] I *D user_proj_example
*CAP
1 io_in[18] 0.00130137
2 *419:io_in[13] 0.000243525
3 *10:17 0.0644931
4 *10:15 0.0642496
5 *10:13 0.0892154
6 *10:11 0.0905167
7 *10:11 *92:13 0.000264561
*RES
1 io_in[18] *10:11 18.386 
2 *10:11 *10:13 646.041 
3 *10:13 *10:15 4.5 
4 *10:15 *10:17 216.732 
5 *10:17 *419:io_in[13] 10.6693 
*END

*D_NET *11 0.304457
*CONN
*P io_in[19] I
*I *419:io_in[14] I *D user_proj_example
*CAP
1 io_in[19] 0.00122911
2 *419:io_in[14] 0.000272739
3 *11:17 0.0535069
4 *11:15 0.0532342
5 *11:13 0.0974279
6 *11:11 0.098657
7 *11:11 *92:13 0.000129567
*RES
1 io_in[19] *11:11 17.474 
2 *11:11 *11:13 705.402 
3 *11:13 *11:15 4.5 
4 *11:15 *11:17 179.441 
5 *11:17 *419:io_in[14] 10.8919 
*END

*D_NET *13 0.298411
*CONN
*P io_in[20] I
*I *419:io_in[15] I *D user_proj_example
*CAP
1 io_in[20] 0.0011155
2 *419:io_in[15] 0.000301954
3 *13:15 0.0424396
4 *13:13 0.0421376
5 *13:11 0.105651
6 *13:9 0.106766
*RES
1 io_in[20] *13:9 16.486 
2 *13:9 *13:11 764.764 
3 *13:11 *13:13 4.5 
4 *13:13 *13:15 142.277 
5 *13:15 *419:io_in[15] 11.1144 
*END

*D_NET *34 0.0845393
*CONN
*P io_in[5] I
*I *419:io_in[0] I *D user_proj_example
*CAP
1 io_in[5] 0.00551744
2 *419:io_in[0] 0.000758366
3 *34:9 0.0367522
4 *34:7 0.0415113
*RES
1 io_in[5] *34:7 43.45 
2 *34:7 *34:9 261.212 
3 *34:9 *419:io_in[0] 10.01 
*END

*D_NET *35 0.128328
*CONN
*P io_in[6] I
*I *419:io_in[1] I *D user_proj_example
*CAP
1 io_in[6] 0.00107418
2 *419:io_in[1] 0.00520164
3 *35:9 0.0271268
4 *35:7 0.0229993
5 *35:9 *36:9 0.0719259
*RES
1 io_in[6] *35:7 11.53 
2 *35:7 *35:9 243.884 
3 *35:9 *419:io_in[1] 41.93 
*END

*D_NET *36 0.14977
*CONN
*P io_in[7] I
*I *419:io_in[2] I *D user_proj_example
*CAP
1 io_in[7] 0.00105354
2 *419:io_in[2] 0.00645206
3 *36:9 0.0203237
4 *36:7 0.0149252
5 *36:9 *38:9 0.0350892
6 *35:9 *36:9 0.0719259
*RES
1 io_in[7] *36:7 11.378 
2 *36:7 *36:9 226.556 
3 *36:9 *419:io_in[2] 42.082 
*END

*D_NET *37 0.0704746
*CONN
*P io_in[8] I
*I *419:io_in[3] I *D user_proj_example
*CAP
1 io_in[8] 0.00460243
2 *419:io_in[3] 0.0017216
3 *37:9 0.0306349
4 *37:7 0.0335157
*RES
1 io_in[8] *37:7 36.61 
2 *37:7 *37:9 209.228 
3 *37:9 *419:io_in[3] 16.85 
*END

*D_NET *38 0.141721
*CONN
*P io_in[9] I
*I *419:io_in[4] I *D user_proj_example
*CAP
1 io_in[9] 0.00120531
2 *419:io_in[4] 0.00529117
3 *38:9 0.0111099
4 *38:7 0.00702404
5 *2:9 *38:9 0.0503441
6 *3:9 *38:9 0.0206711
7 *6:9 *38:9 0.0109859
8 *36:9 *38:9 0.0350892
*RES
1 io_in[9] *38:7 11.226 
2 *38:7 *38:9 191.9 
3 *38:9 *419:io_in[4] 42.234 
*END

*D_NET *52 0.346725
*CONN
*P io_oeb[21] O
*I *419:io_oeb[0] O *D user_proj_example
*CAP
1 io_oeb[21] 0.00122833
2 *419:io_oeb[0] 0.00267478
3 *52:21 0.102711
4 *52:19 0.101483
5 *52:17 0.0679003
6 *52:15 0.070575
7 io_oeb[21] *92:13 0.000152064
*RES
1 *419:io_oeb[0] *52:15 17.6974 
2 *52:15 *52:17 230.127 
3 *52:17 *52:19 4.5 
4 *52:19 *52:21 734.961 
5 *52:21 io_oeb[21] 17.626 
*END

*D_NET *53 0.454932
*CONN
*P io_oeb[22] O
*I *419:io_oeb[1] O *D user_proj_example
*CAP
1 io_oeb[22] 0.00128777
2 *419:io_oeb[1] 0.000196366
3 *53:14 0.0929956
4 *53:12 0.0917079
5 *53:10 0.134131
6 *53:8 0.134327
7 io_oeb[22] *92:13 0.000287059
*RES
1 *419:io_oeb[1] *53:8 9.63786 
2 *53:8 *53:10 275.023 
3 *53:10 *53:12 4.5 
4 *53:12 *53:14 664.362 
5 *53:14 io_oeb[22] 18.538 
*END

*D_NET *54 0.351766
*CONN
*P io_oeb[23] O
*I *419:io_oeb[2] O *D user_proj_example
*CAP
1 io_oeb[23] 0.00120022
2 *419:io_oeb[2] 3.09172e-05
3 *54:14 0.0832207
4 *54:12 0.0820204
5 *54:10 0.0926315
6 *54:8 0.0926624
*RES
1 *419:io_oeb[2] *54:8 9.10043 
2 *54:8 *54:10 313.205 
3 *54:10 *54:12 4.5 
4 *54:12 *54:14 593.764 
5 *54:14 io_oeb[23] 17.17 
*END

*D_NET *55 0.568253
*CONN
*P io_oeb[24] O
*I *419:io_oeb[3] O *D user_proj_example
*CAP
1 io_oeb[24] 0.000593267
2 *419:io_oeb[3] 0.000489314
3 *55:19 0.00750843
4 *55:17 0.00691516
5 *55:15 0.0942873
6 *55:13 0.0947766
7 *55:19 *93:18 0.199334
8 *55:19 *94:18 0.164349
*RES
1 *419:io_oeb[3] *55:13 10.9518 
2 *55:13 *55:15 317.914 
3 *55:15 *55:17 4.5 
4 *55:17 *55:19 478.314 
5 *55:19 io_oeb[24] 8.794 
*END

*D_NET *56 0.3532
*CONN
*P io_oeb[25] O
*I *419:io_oeb[4] O *D user_proj_example
*CAP
1 io_oeb[25] 0.000771797
2 *419:io_oeb[4] 0.00280178
3 *56:21 0.0204971
4 *56:19 0.0197253
5 *56:17 0.0916916
6 *56:15 0.0944934
7 *56:21 *57:21 0.0925339
8 *56:21 *93:18 0.0306651
9 *419:io_in[9] *56:21 1.97454e-05
*RES
1 *419:io_oeb[4] *56:15 17.9906 
2 *56:15 *56:17 309.8 
3 *56:17 *56:19 4.5 
4 *56:19 *56:21 350.26 
5 *56:21 io_oeb[25] 9.706 
*END

*D_NET *57 0.407934
*CONN
*P io_oeb[26] O
*I *419:io_oeb[5] O *D user_proj_example
*CAP
1 io_oeb[26] 0.000806117
2 *419:io_oeb[5] 0.00608376
3 *57:21 0.016369
4 *57:19 0.0155629
5 *57:17 0.135247
6 *57:15 0.141331
7 *56:21 *57:21 0.0925339
*RES
1 *419:io_oeb[5] *57:15 17.8395 
2 *57:15 *57:17 309.736 
3 *57:17 *57:19 4.5 
4 *57:19 *57:21 221.961 
5 *57:21 io_oeb[26] 9.858 
*END

*D_NET *90 0.702651
*CONN
*P io_out[21] O
*I *419:io_out[0] O *D user_proj_example
*CAP
1 io_out[21] 0.000977306
2 *419:io_out[0] 0.00011181
3 *90:13 0.039378
4 *90:11 0.0384007
5 *90:9 0.0606765
6 *90:7 0.0607884
7 *90:9 *91:9 0.278833
8 *90:13 *91:13 0.223485
*RES
1 *419:io_out[0] *90:7 5.298 
2 *90:7 *90:9 759.772 
3 *90:9 *90:11 4.5 
4 *90:11 *90:13 539.068 
5 *90:13 io_out[21] 11.226 
*END

*D_NET *91 0.881221
*CONN
*P io_out[22] O
*I *419:io_out[1] O *D user_proj_example
*CAP
1 io_out[22] 0.000999175
2 *419:io_out[1] 0.00016862
3 *91:13 0.0086799
4 *91:11 0.00768072
5 *91:9 0.0502371
6 *91:7 0.0504058
7 *91:13 *92:13 0.260731
8 *90:9 *91:9 0.278833
9 *90:13 *91:13 0.223485
*RES
1 *419:io_out[1] *91:7 5.45 
2 *91:7 *91:9 688.332 
3 *91:9 *91:11 4.5 
4 *91:11 *91:13 629.052 
5 *91:13 io_out[22] 11.378 
*END

*D_NET *92 0.579305
*CONN
*P io_out[23] O
*I *419:io_out[2] O *D user_proj_example
*CAP
1 io_out[23] 0.00102104
2 *419:io_out[2] 0.000311496
3 *92:13 0.0584643
4 *92:11 0.0574433
5 *92:9 0.090137
6 *92:7 0.0904485
7 *92:9 *95:9 0.0196557
8 io_oeb[21] *92:13 0.000152064
9 io_oeb[22] *92:13 0.000287059
10 *8:11 *92:13 0.000197064
11 *9:11 *92:13 6.20697e-05
12 *10:11 *92:13 0.000264561
13 *11:11 *92:13 0.000129567
14 *91:13 *92:13 0.260731
*RES
1 *419:io_out[2] *92:7 6.666 
2 *92:7 *92:9 617.956 
3 *92:9 *92:11 4.5 
4 *92:11 *92:13 721.012 
5 *92:13 io_out[23] 11.53 
*END

*D_NET *93 0.472347
*CONN
*P io_out[24] O
*I *419:io_out[3] O *D user_proj_example
*CAP
1 io_out[24] 0.000613904
2 *419:io_out[3] 0.00241135
3 *93:18 0.0267631
4 *93:16 0.0261492
5 *93:14 0.091761
6 *93:12 0.0941724
7 *419:io_in[10] *93:18 0.000303401
8 *419:io_in[11] *93:18 6.79364e-05
9 *419:io_in[9] *93:18 0.000106477
10 *55:19 *93:18 0.199334
11 *56:21 *93:18 0.0306651
*RES
1 *419:io_out[3] *93:12 17.0569 
2 *93:12 *93:14 310.118 
3 *93:14 *93:16 4.5 
4 *93:16 *93:18 522.628 
5 *93:18 io_out[24] 8.946 
*END

*D_NET *94 0.409614
*CONN
*P io_out[25] O
*I *419:io_out[4] O *D user_proj_example
*CAP
1 io_out[25] 0.00057263
2 *419:io_out[4] 0.00253136
3 *94:18 0.0282538
4 *94:16 0.0276811
5 *94:14 0.0918473
6 *94:12 0.0943787
7 *55:19 *94:18 0.164349
*RES
1 *419:io_out[4] *94:12 17.0035 
2 *94:12 *94:14 310.245 
3 *94:14 *94:16 4.5 
4 *94:16 *94:18 394.329 
5 *94:18 io_out[25] 8.642 
*END

*D_NET *95 0.308928
*CONN
*P io_out[26] O
*I *419:io_out[5] O *D user_proj_example
*CAP
1 io_out[26] 0.107599
2 *419:io_out[5] 0.000414501
3 *95:11 0.107599
4 *95:9 0.0366228
5 *95:7 0.0370373
6 *92:9 *95:9 0.0196557
*RES
1 *419:io_out[5] *95:7 6.818 
2 *95:7 *95:9 265.924 
3 *95:9 *95:11 4.5 
4 *95:11 io_out[26] 765.814 
*END

*D_NET *313 0.100409
*CONN
*P wb_clk_i I
*I *419:wb_clk_i I *D user_proj_example
*CAP
1 wb_clk_i 0.000140838
2 *419:wb_clk_i 0.000673028
3 *313:13 0.0134818
4 *313:11 0.0129496
5 *313:13 *314:13 0.0731638
*RES
1 wb_clk_i *313:11 5.602 
2 *313:11 *313:13 178.372 
3 *313:13 *419:wb_clk_i 9.022 
*END

*D_NET *314 0.206003
*CONN
*P wb_rst_i I
*I *419:wb_rst_i I *D user_proj_example
*CAP
1 wb_rst_i 0.000118969
2 *419:wb_rst_i 0.000725813
3 *314:13 0.0663006
4 *314:11 0.0656937
5 *313:13 *314:13 0.0731638
*RES
1 wb_rst_i *314:11 5.45 
2 *314:11 *314:13 555.18 
3 *314:13 *419:wb_rst_i 9.478 
*END
